data_VESTA_phase_1

_chemical_name_common 'New structure'
_cell_length_a 3.904336
_cell_length_b 3.904336
_cell_length_c 11.599001
_cell_angle_alpha 90.000000
_cell_angle_beta 90.000000
_cell_angle_gamma 90.000000
_cell_volume 176.813308
_space_group_name_H-M_alt 'P 1'
_space_group_IT_number 1

loop_
_space_group_symop_operation_xyz
 'x, y, z'

loop_
 _atom_site_label
 _atom_site_occupancy
 _atom_site_fract_x
 _atom_site_fract_y
 _atom_site_fract_z
 _atom_site_adp_type
 _atom_site_U_iso_or_equiv
 _atom_site_type_symbol
 Li1 1.0 0.000000 0.500000 0.000000 Uiso ? Li
 Li2 1.0 0.500000 0.000000 0.000000 Uiso ? Li
 Li3 1.0 0.500000 1.000000 0.500000 Uiso ? Li
 Li4 1.0 0.000000 0.500000 0.500000 Uiso ? Li
 Li5 1.0 1.000000 0.000000 0.153038 Uiso ? Li
 Li6 1.0 0.000000 0.000000 0.846962 Uiso ? Li
 Li7 1.0 0.500000 0.500000 0.653038 Uiso ? Li
 Li8 1.0 0.500000 0.500000 0.346962 Uiso ? Li
 Br1 1.0 0.000000 1.000000 0.346373 Uiso ? Br
 Br2 1.0 0.000000 1.000000 0.653627 Uiso ? Br
 Br3 1.0 0.500000 0.500000 0.846373 Uiso ? Br
 Br4 1.0 0.500000 0.500000 0.153627 Uiso ? Br
 O1 1.0 1.000000 0.000000 0.000000 Uiso ? O
 O2 1.0 0.500000 0.500000 0.500000 Uiso ? O
 Br5 1.0 0.000000 1.000000 0.346550 Uiso ? Br
 Br6 1.0 0.000000 0.000000 0.653450 Uiso ? Br
 Br7 1.0 0.500000 0.500000 0.846550 Uiso ? Br
 Br8 1.0 0.500000 0.500000 0.153450 Uiso ? Br
 O3 1.0 1.000000 0.000000 0.000000 Uiso ? O
 O4 1.0 0.500000 0.500000 0.500000 Uiso ? O
