data_VESTA_phase_1

_chemical_name_common 'New structure'
_cell_length_a 8.500000
_cell_length_b 6.300000
_cell_length_c 13.000000
_cell_angle_alpha 90.000000
_cell_angle_beta 90.000000
_cell_angle_gamma 90.000000
_cell_volume 696.150021
_space_group_name_H-M_alt 'P 1'
_space_group_IT_number 1

loop_
_space_group_symop_operation_xyz
 'x, y, z'

loop_
 _atom_site_label
 _atom_site_occupancy
 _atom_site_fract_x
 _atom_site_fract_y
 _atom_site_fract_z
 _atom_site_adp_type
 _atom_site_U_iso_or_equiv
 _atom_site_type_symbol
 Li1 1.0 0.633330 0.526530 0.625770 Uiso ? Li
 Li2 1.0 0.863210 0.609350 0.348160 Uiso ? Li
 Li3 1.0 0.363210 0.026560 0.348160 Uiso ? Li
 Li4 1.0 0.133330 0.109360 0.625760 Uiso ? Li
 Li5 1.0 0.863210 0.609350 0.125770 Uiso ? Li
 Li6 1.0 0.633330 0.526550 0.848160 Uiso ? Li
 Li7 1.0 0.133330 0.109360 0.848160 Uiso ? Li
 Li8 1.0 0.363210 0.026560 0.125760 Uiso ? Li
 Li9 1.0 0.633360 0.109320 0.848160 Uiso ? Li
 Li10 1.0 0.863210 0.026560 0.125770 Uiso ? Li
 Li11 1.0 0.363210 0.609340 0.125760 Uiso ? Li
 Li12 1.0 0.133360 0.526580 0.848150 Uiso ? Li
 Li13 1.0 0.863210 0.026560 0.348160 Uiso ? Li
 Li14 1.0 0.633340 0.109310 0.625770 Uiso ? Li
 Li15 1.0 0.133360 0.526580 0.625770 Uiso ? Li
 Li16 1.0 0.363210 0.609340 0.348160 Uiso ? Li
 Li17 1.0 0.383820 0.317900 0.736960 Uiso ? Li
 Li18 1.0 0.112740 0.817950 0.236960 Uiso ? Li
 Li19 1.0 0.612720 0.817950 0.236960 Uiso ? Li
 Li20 1.0 0.883810 0.318000 0.736960 Uiso ? Li
 Br1 1.0 0.291370 0.817980 0.736960 Uiso ? Br
 Br2 1.0 0.205170 0.317950 0.236960 Uiso ? Br
 Br3 1.0 0.705180 0.317950 0.236960 Uiso ? Br
 Br4 1.0 0.791370 0.817920 0.736960 Uiso ? Br
 Br5 1.0 0.379280 0.317960 0.942690 Uiso ? Br
 Br6 1.0 0.117280 0.817950 0.031230 Uiso ? Br
 Br7 1.0 0.617280 0.817950 0.031230 Uiso ? Br
 Br8 1.0 0.879280 0.317950 0.942690 Uiso ? Br
 Br9 1.0 0.117280 0.817950 0.442690 Uiso ? Br
 Br10 1.0 0.379280 0.317940 0.531230 Uiso ? Br
 Br11 1.0 0.879280 0.317950 0.531230 Uiso ? Br
 Br12 1.0 0.617280 0.817950 0.442690 Uiso ? Br
 O1 1.0 0.620340 0.317930 0.736960 Uiso ? O
 O2 1.0 0.876210 0.817950 0.236960 Uiso ? O
 O3 1.0 0.376200 0.817950 0.236960 Uiso ? O
 O4 1.0 0.120360 0.317970 0.736960 Uiso ? O
 Br13 1.0 0.291370 0.817980 0.736960 Uiso ? Br
 Br14 1.0 0.205170 0.317950 0.236960 Uiso ? Br
 Br15 1.0 0.705180 0.317950 0.236960 Uiso ? Br
 Br16 1.0 0.791370 0.817920 0.736960 Uiso ? Br
 Br17 1.0 0.379280 0.317960 0.942690 Uiso ? Br
 Br18 1.0 0.117280 0.817950 0.031230 Uiso ? Br
 Br19 1.0 0.617280 0.817950 0.031230 Uiso ? Br
 Br20 1.0 0.879280 0.317950 0.942690 Uiso ? Br
 Br21 1.0 0.117280 0.817950 0.442690 Uiso ? Br
 Br22 1.0 0.379280 0.317940 0.531230 Uiso ? Br
 Br23 1.0 0.879280 0.317950 0.531230 Uiso ? Br
 Br24 1.0 0.617280 0.817950 0.442690 Uiso ? Br
 O5 1.0 0.620340 0.317930 0.736960 Uiso ? O
 O6 1.0 0.876210 0.817950 0.236960 Uiso ? O
 O7 1.0 0.376200 0.817950 0.236960 Uiso ? O
 O8 1.0 0.120360 0.317970 0.736960 Uiso ? O
