data_VESTA_phase_1

_chemical_name_common 'New structure'
_cell_length_a 7.776548
_cell_length_b 7.305370
_cell_length_c 7.776600
_cell_angle_alpha 90.000000
_cell_angle_beta 94.241402
_cell_angle_gamma 90.000000
_cell_volume 440.583043
_space_group_name_H-M_alt 'P 1'
_space_group_IT_number 1

loop_
_space_group_symop_operation_xyz
 'x, y, z'

loop_
 _atom_site_label
 _atom_site_occupancy
 _atom_site_fract_x
 _atom_site_fract_y
 _atom_site_fract_z
 _atom_site_adp_type
 _atom_site_U_iso_or_equiv
 _atom_site_type_symbol
 Br1 1.0 0.830520 0.242564 0.338774 Uiso ? Br
 Br2 1.0 0.181879 0.742550 0.690134 Uiso ? Br
 Br3 1.0 0.681879 0.742564 0.190134 Uiso ? Br
 Br4 1.0 0.330520 0.242550 0.838774 Uiso ? Br
 Br5 1.0 0.822528 0.375991 0.830790 Uiso ? Br
 Br6 1.0 0.189874 0.609122 0.198121 Uiso ? Br
 Br7 1.0 0.689874 0.875992 0.698120 Uiso ? Br
 Br8 1.0 0.322528 0.109122 0.330790 Uiso ? Br
 Li1 1.0 0.004155 0.931049 0.254962 Uiso ? Li
 Li2 1.0 0.008244 0.054063 0.773953 Uiso ? Li
 Li3 1.0 0.508244 0.431051 0.273953 Uiso ? Li
 Li4 1.0 0.504155 0.554065 0.754962 Uiso ? Li
 Li5 1.0 0.246697 0.931002 0.012467 Uiso ? Li
 Li6 1.0 0.765703 0.054108 0.016453 Uiso ? Li
 Li7 1.0 0.265703 0.431006 0.516453 Uiso ? Li
 Li8 1.0 0.746697 0.554112 0.516453 Uiso ? Li
 Li9 1.0 0.071128 0.258908 0.079351 Uiso ? Li
 Li10 1.0 0.941271 0.726206 0.949569 Uiso ? Li
 Li11 1.0 0.441271 0.758908 0.449569 Uiso ? Li
 Li12 1.0 0.571128 0.226206 0.579351 Uiso ? Li
 O1 1.0 0.006200 0.992555 0.014458 Uiso ? O
 O2 1.0 0.506200 0.492559 0.514458 Uiso ? O
 Br9 1.0 0.828744 0.242560 0.336999 Uiso ? Br
 Br10 1.0 0.183656 0.742552 0.691908 Uiso ? Br
 Br11 1.0 0.683656 0.742561 0.191908 Uiso ? Br
 Br12 1.0 0.328744 0.242554 0.836999 Uiso ? Br
 Br13 1.0 0.821463 0.373942 0.829728 Uiso ? Br
 Br14 1.0 0.190938 0.611171 0.199182 Uiso ? Br
 Br15 1.0 0.690938 0.873943 0.699183 Uiso ? Br
 Br16 1.0 0.321463 0.111172 0.329728 Uiso ? Br
 O3 1.0 0.006200 0.992555 0.014458 Uiso ? O
 O4 1.0 0.506200 0.492559 0.514458 Uiso ? O
