
#======================================================================
# CRYSTAL DATA
#----------------------------------------------------------------------
data_VESTA_phase_1

_chemical_name_common                  'Li8 Si4 O12'
_cell_length_a                         27.200001
_cell_length_b                         47.336960
_cell_length_c                         23.598110
_cell_angle_alpha                      90.000000
_cell_angle_beta                       90.000000
_cell_angle_gamma                      90.000000
_cell_volume                           30384.108870
_space_group_name_H-M_alt              'P 1'
_space_group_IT_number                 1

loop_
_space_group_symop_operation_xyz
   'x, y, z'
   'x, y, z+0.2'
   'x, y, z+0.4'
   'x, y, z+0.6'
   'x, y, z+0.8'
   'x, y+0.2, z'
   'x, y+0.2, z+0.2'
   'x, y+0.2, z+0.4'
   'x, y+0.2, z+0.6'
   'x, y+0.2, z+0.8'
   'x, y+0.4, z'
   'x, y+0.4, z+0.2'
   'x, y+0.4, z+0.4'
   'x, y+0.4, z+0.6'
   'x, y+0.4, z+0.8'
   'x, y+0.6, z'
   'x, y+0.6, z+0.2'
   'x, y+0.6, z+0.4'
   'x, y+0.6, z+0.6'
   'x, y+0.6, z+0.8'
   'x, y+0.8, z'
   'x, y+0.8, z+0.2'
   'x, y+0.8, z+0.4'
   'x, y+0.8, z+0.6'
   'x, y+0.8, z+0.8'
   'x+0.2, y, z'
   'x+0.2, y, z+0.2'
   'x+0.2, y, z+0.4'
   'x+0.2, y, z+0.6'
   'x+0.2, y, z+0.8'
   'x+0.2, y+0.2, z'
   'x+0.2, y+0.2, z+0.2'
   'x+0.2, y+0.2, z+0.4'
   'x+0.2, y+0.2, z+0.6'
   'x+0.2, y+0.2, z+0.8'
   'x+0.2, y+0.4, z'
   'x+0.2, y+0.4, z+0.2'
   'x+0.2, y+0.4, z+0.4'
   'x+0.2, y+0.4, z+0.6'
   'x+0.2, y+0.4, z+0.8'
   'x+0.2, y+0.6, z'
   'x+0.2, y+0.6, z+0.2'
   'x+0.2, y+0.6, z+0.4'
   'x+0.2, y+0.6, z+0.6'
   'x+0.2, y+0.6, z+0.8'
   'x+0.2, y+0.8, z'
   'x+0.2, y+0.8, z+0.2'
   'x+0.2, y+0.8, z+0.4'
   'x+0.2, y+0.8, z+0.6'
   'x+0.2, y+0.8, z+0.8'
   'x+0.4, y, z'
   'x+0.4, y, z+0.2'
   'x+0.4, y, z+0.4'
   'x+0.4, y, z+0.6'
   'x+0.4, y, z+0.8'
   'x+0.4, y+0.2, z'
   'x+0.4, y+0.2, z+0.2'
   'x+0.4, y+0.2, z+0.4'
   'x+0.4, y+0.2, z+0.6'
   'x+0.4, y+0.2, z+0.8'
   'x+0.4, y+0.4, z'
   'x+0.4, y+0.4, z+0.2'
   'x+0.4, y+0.4, z+0.4'
   'x+0.4, y+0.4, z+0.6'
   'x+0.4, y+0.4, z+0.8'
   'x+0.4, y+0.6, z'
   'x+0.4, y+0.6, z+0.2'
   'x+0.4, y+0.6, z+0.4'
   'x+0.4, y+0.6, z+0.6'
   'x+0.4, y+0.6, z+0.8'
   'x+0.4, y+0.8, z'
   'x+0.4, y+0.8, z+0.2'
   'x+0.4, y+0.8, z+0.4'
   'x+0.4, y+0.8, z+0.6'
   'x+0.4, y+0.8, z+0.8'
   'x+0.6, y, z'
   'x+0.6, y, z+0.2'
   'x+0.6, y, z+0.4'
   'x+0.6, y, z+0.6'
   'x+0.6, y, z+0.8'
   'x+0.6, y+0.2, z'
   'x+0.6, y+0.2, z+0.2'
   'x+0.6, y+0.2, z+0.4'
   'x+0.6, y+0.2, z+0.6'
   'x+0.6, y+0.2, z+0.8'
   'x+0.6, y+0.4, z'
   'x+0.6, y+0.4, z+0.2'
   'x+0.6, y+0.4, z+0.4'
   'x+0.6, y+0.4, z+0.6'
   'x+0.6, y+0.4, z+0.8'
   'x+0.6, y+0.6, z'
   'x+0.6, y+0.6, z+0.2'
   'x+0.6, y+0.6, z+0.4'
   'x+0.6, y+0.6, z+0.6'
   'x+0.6, y+0.6, z+0.8'
   'x+0.6, y+0.8, z'
   'x+0.6, y+0.8, z+0.2'
   'x+0.6, y+0.8, z+0.4'
   'x+0.6, y+0.8, z+0.6'
   'x+0.6, y+0.8, z+0.8'
   'x+0.8, y, z'
   'x+0.8, y, z+0.2'
   'x+0.8, y, z+0.4'
   'x+0.8, y, z+0.6'
   'x+0.8, y, z+0.8'
   'x+0.8, y+0.2, z'
   'x+0.8, y+0.2, z+0.2'
   'x+0.8, y+0.2, z+0.4'
   'x+0.8, y+0.2, z+0.6'
   'x+0.8, y+0.2, z+0.8'
   'x+0.8, y+0.4, z'
   'x+0.8, y+0.4, z+0.2'
   'x+0.8, y+0.4, z+0.4'
   'x+0.8, y+0.4, z+0.6'
   'x+0.8, y+0.4, z+0.8'
   'x+0.8, y+0.6, z'
   'x+0.8, y+0.6, z+0.2'
   'x+0.8, y+0.6, z+0.4'
   'x+0.8, y+0.6, z+0.6'
   'x+0.8, y+0.6, z+0.8'
   'x+0.8, y+0.8, z'
   'x+0.8, y+0.8, z+0.2'
   'x+0.8, y+0.8, z+0.4'
   'x+0.8, y+0.8, z+0.6'
   'x+0.8, y+0.8, z+0.8'

loop_
   _atom_site_label
   _atom_site_occupancy
   _atom_site_fract_x
   _atom_site_fract_y
   _atom_site_fract_z
   _atom_site_adp_type
   _atom_site_U_iso_or_equiv
   _atom_site_type_symbol
   Li0        1.0     0.068846     0.034753     0.198860    Uiso  ? Li
   Li1        1.0     0.031154     0.065247     0.098860    Uiso  ? Li
   Li2        1.0     0.131154     0.034753     0.098860    Uiso  ? Li
   Li3        1.0     0.168846     0.065247     0.198860    Uiso  ? Li
   Li4        1.0     0.168846     0.134753     0.198860    Uiso  ? Li
   Li5        1.0     0.131154     0.165247     0.098860    Uiso  ? Li
   Li6        1.0     0.031154     0.134753     0.098860    Uiso  ? Li
   Li7        1.0     0.068846     0.165247     0.198860    Uiso  ? Li
   Si8        1.0     0.034345     0.000000     0.099907    Uiso  ? Si
   Si9        1.0     0.165655     0.000000     0.199907    Uiso  ? Si
   Si10       1.0     0.134345     0.100000     0.099907    Uiso  ? Si
   Si11       1.0     0.065655     0.100000     0.199907    Uiso  ? Si
   O12        1.0     0.022957     0.000000     0.029083    Uiso  ? O
   O13        1.0     0.161880     0.070965     0.116165    Uiso  ? O
   O14        1.0     0.061879     0.029035     0.116165    Uiso  ? O
   O15        1.0     0.177043     0.000000     0.129083    Uiso  ? O
   O16        1.0     0.038121     0.070965     0.016165    Uiso  ? O
   O17        1.0     0.138121     0.029035     0.016165    Uiso  ? O
   O18        1.0     0.122957     0.100000     0.029083    Uiso  ? O
   O19        1.0     0.061879     0.170965     0.116165    Uiso  ? O
   O20        1.0     0.161880     0.129035     0.116165    Uiso  ? O
   O21        1.0     0.077043     0.100000     0.129083    Uiso  ? O
   O22        1.0     0.138121     0.170965     0.016165    Uiso  ? O
   O23        1.0     0.038121     0.129035     0.016165    Uiso  ? O
