
#======================================================================
# CRYSTAL DATA
#----------------------------------------------------------------------
data_VESTA_phase_1

_chemical_name_common                  'Ba2 Y1 Cu3 O7'
_cell_length_a                         3.844668
_cell_length_b                         3.926152
_cell_length_c                         11.823664
_cell_angle_alpha                      90.000000
_cell_angle_beta                       90.000000
_cell_angle_gamma                      90.000000
_cell_volume                           178.475255
_space_group_name_H-M_alt              'P 1'
_space_group_IT_number                 1

loop_
_space_group_symop_operation_xyz
   'x, y, z'

loop_
   _atom_site_label
   _atom_site_occupancy
   _atom_site_fract_x
   _atom_site_fract_y
   _atom_site_fract_z
   _atom_site_adp_type
   _atom_site_U_iso_or_equiv
   _atom_site_type_symbol
   Ba0        1.0     0.500000     0.500000     0.819391    Uiso  ? Ba
   Ba1        1.0     0.500000     0.500000     0.180609    Uiso  ? Ba
   Y2         1.0     0.500000     0.500000     0.500000    Uiso  ? Y
   Cu2        1.0     0.000000     0.000000     0.646678    Uiso  ? Cu
   Cu2        1.0     0.000000     0.000000     0.353322    Uiso  ? Cu
   Cu1        1.0     0.000000     0.000000     0.000000    Uiso  ? Cu
   O6         1.0     0.000000     0.500000     0.000000    Uiso  ? O
   O7         1.0     0.500000     0.000000     0.620653    Uiso  ? O
   O8         1.0     0.500000     0.000000     0.379347    Uiso  ? O
   O9         1.0     0.000000     0.500000     0.621651    Uiso  ? O
   O10        1.0     0.000000     0.500000     0.378349    Uiso  ? O
   O11        1.0     0.000000     0.000000     0.840820    Uiso  ? O
   O12        1.0     0.000000     0.000000     0.159180    Uiso  ? O
