LAMMPS (9 Sep 2010)
units	        metal
atom_style	atomic
boundary p p p
read_data       data.graphene
Reading data file ...
  orthogonal box = (-9.768 -9.35 -50) to (9.768 9.35 50)
  256 atoms
pair_style meam
pair_coeff * * lib.meam C C.meam C

timestep        0.001
neighbor        2.0 bin
thermo          10
thermo_style custom step temp press pxx pyy pzz vol etotal
thermo_modify lost warn
dump		1 all atom 250 graph.lammpstrj

minimize 0.0 1.0e-8 1000 100000
Setting up minimization ...
Step Temp Press Pxx Pyy Pzz Volume TotEng
0            0    48819.412    76852.342    69189.362    416.53312     36532.32   -1222.7522
Loop time of 12.8449 on 8 procs for 876 steps with 256 atoms

Minimization stats:
  Stopping criterion = linesearch alpha is zero
  Energy initial, next-to-last, final =
  Force two-norm initial, final = 36.3377 0.00199405
  Force max component initial, final = 6.46505 0.000670706
  Final line search alpha, max atom move = 0.00390625 2.61995e-06
  Iterations, force evaluations = 876 4559

Pair  time (%) = 5.81694 (45.2858)
Neigh time (%) = 0.000569046 (0.00443011)
Comm  time (%) = 3.21451 (25.0255)
Outpt time (%) = 0.00388503 (0.0302456)
Other time (%) = 3.80904 (29.654)

fix 1 all nve
run		5000
Setting up run ...
Step Temp Press Pxx Pyy Pzz Volume TotEng
876            0   -26751.692   -17058.297   -63196.779 0.00066127851     36532.32   -2390.6382
Averages over the last 251 of 502 rows, steps 3380 to 5876:
Temp Press Pxx Pyy Pzz Volume TotEng
1.31902e-05 -26751.2 -17057.6 -63195.9 -8.87219e-05 36532.3 -2390.64
Loop time of 15.8352 on 8 procs for 5000 steps with 256 atoms

Pair  time (%) = 7.00449 (44.2337)
Neigh time (%) = 0 (0)
Comm  time (%) = 3.96204 (25.0205)
Outpt time (%) = 0.506932 (3.20131)
Other time (%) = 4.36172 (27.5445)
