data_nanotube

_audit_creation_method       '(10,10) Nanotube -- TubeGen 3.3, J T Frey, University of Delaware'

_cell_length_a        16.9336
_cell_length_b        16.9336
_cell_length_c         2.4615
_cell_angle_alpha     90.00
_cell_angle_beta      90.00
_cell_angle_gamma    120.00

_symmetry_space_group_name_H-M   'P 1'
_symmetry_Int_Tables_number       1

loop_
_atom_site_label
_atom_site_fract_x
_atom_site_fract_y
_atom_site_fract_z
C         0.9012    0.5000    0.0000
C         0.9406    0.5964    0.0000
C         0.9531    0.6431    0.5000
C         0.9632    0.7317    0.5000
C         0.9607    0.7723    0.0000
C         0.9405    0.8443    0.0000
C         0.9232    0.8748    0.5000
C         0.8747    0.9232    0.5000
C         0.8443    0.9406    0.0000
C         0.7722    0.9607    0.0000
C         0.7316    0.9632    0.5000
C         0.6431    0.9531    0.5000
C         0.5963    0.9406    0.0000
C         0.4999    0.9011    0.0000
C         0.4516    0.8748    0.5000
C         0.3568    0.8099    0.5000
C         0.3116    0.7723    0.0000
C         0.2277    0.6884    0.0000
C         0.1900    0.6431    0.5000
C         0.1252    0.5484    0.5000
C         0.0988    0.5000    0.0000
C         0.0594    0.4036    0.0000
C         0.0469    0.3569    0.5000
C         0.0368    0.2683    0.5000
C         0.0393    0.2277    0.0000
C         0.0595    0.1557    0.0000
C         0.0768    0.1252    0.5000
C         0.1253    0.0768    0.5000
C         0.1557    0.0594    0.0000
C         0.2278    0.0393    0.0000
C         0.2684    0.0368    0.5000
C         0.3569    0.0469    0.5000
C         0.4037    0.0594    0.0000
C         0.5001    0.0989    0.0000
C         0.5484    0.1252    0.5000
C         0.6432    0.1901    0.5000
C         0.6884    0.2277    0.0000
C         0.7723    0.3116    0.0000
C         0.8100    0.3569    0.5000
C         0.8748    0.4516    0.5000