data_nanotube

_audit_creation_method       '(3,3) Nanotube -- TubeGen 3.3, J T Frey, University of Delaware'

_cell_length_a         7.4762
_cell_length_b         7.4762
_cell_length_c         2.4643
_cell_angle_alpha     90.00
_cell_angle_beta      90.00
_cell_angle_gamma    120.00

_symmetry_space_group_name_H-M   'P 1'
_symmetry_Int_Tables_number       1

loop_
_atom_site_label
_atom_site_fract_x
_atom_site_fract_y
_atom_site_fract_z
C         0.7762    0.5000    0.0000
C         0.8138    0.7061    0.0000
C         0.7762    0.7762    0.5000
C         0.6077    0.8138    0.5000
C         0.5000    0.7762    0.0000
C         0.2939    0.6077    0.0000
C         0.2238    0.5000    0.5000
C         0.1862    0.2939    0.5000
C         0.2238    0.2238    0.0000
C         0.3923    0.1862    0.0000
C         0.5000    0.2238    0.5000
C         0.7061    0.3923    0.5000

