
#======================================================================
# CRYSTAL DATA
#----------------------------------------------------------------------
data_VESTA_phase_1

_chemical_name_common                  'Cu9 + Graphite'
_cell_length_a                         2.557677
_cell_length_b                         2.557678
_cell_length_c                         37.590027
_cell_angle_alpha                      90.000000
_cell_angle_beta                       90.000000
_cell_angle_gamma                      120.000000
_cell_volume                           212.958430
_space_group_name_H-M_alt              'P 1'
_space_group_IT_number                 1

loop_
_space_group_symop_operation_xyz
   'x, y, z'

loop_
   _atom_site_label
   _atom_site_occupancy
   _atom_site_fract_x
   _atom_site_fract_y
   _atom_site_fract_z
   _atom_site_adp_type
   _atom_site_U_iso_or_equiv
   _atom_site_type_symbol
   Cu1        1.0     0.666667     0.333333     0.333144    Uiso  ? Cu
   Cu2        1.0     0.333333     0.666667     0.277675    Uiso  ? Cu
   Cu3        1.0     -0.000000     -0.000000     0.388697    Uiso  ? Cu
   Cu4        1.0     0.666667     0.333333     0.500000    Uiso  ? Cu
   Cu5        1.0     0.333333     0.666667     0.444307    Uiso  ? Cu
   Cu6        1.0     -0.000000     -0.000000     0.555693    Uiso  ? Cu
   Cu7        1.0     0.666667     0.333333     0.666856    Uiso  ? Cu
   Cu8        1.0     0.333333     0.666667     0.611303    Uiso  ? Cu
   Cu9        1.0     0.000000     -0.000000     0.722325    Uiso  ? Cu
   C1         1.0     0.333333     0.666667     0.78         Uiso      ? C
   C2         1.0     0.666667     0.333333     0.78          Uiso     ? C