#======================================================================

# CRYSTAL DATA

#----------------------------------------------------------------------

data_VESTA_phase_1


_chemical_name_common                  ''
_cell_length_a                         3.32856
_cell_length_b                         3.32856
_cell_length_c                         49.98569
_cell_angle_alpha                      90
_cell_angle_beta                       90
_cell_angle_gamma                      90
_space_group_name_H-M_alt              'P 1'
_space_group_IT_number                 1

loop_
_space_group_symop_operation_xyz
   'x, y, z'

loop_
   _atom_site_label
   _atom_site_occupancy
   _atom_site_fract_x
   _atom_site_fract_y
   _atom_site_fract_z
   _atom_site_adp_type
   _atom_site_B_iso_or_equiv
   _atom_site_type_symbol
   Mg1        1.0     0.000000      0.000000      0.000000     Biso  1.000000 Mg
   Mg2        1.0     0.000000      0.000000      0.066590     Biso  1.000000 Mg
   Mg3        1.0     0.000000      0.000000      0.133181     Biso  1.000000 Mg
   Mg4        1.0     0.000000      0.000000      0.199771     Biso  1.000000 Mg
   Ni1        1.0     0.500000      0.500000      0.033295     Biso  1.000000 Ni
   Ni2        1.0     0.500000      0.500000      0.099886     Biso  1.000000 Ni
   Ni3        1.0     0.500000      0.500000      0.166476     Biso  1.000000 Ni
   H1         1.0     0.500000      0.500000      0.000000     Biso  1.000000 H
   H2         1.0     0.500000      0.500000      0.066590     Biso  1.000000 H
   H3         1.0     0.500000      0.500000      0.133181     Biso  1.000000 H
   H4         1.0     0.500000      0.000000      0.033295     Biso  1.000000 H
   H5         1.0     0.500000      0.000000      0.099886     Biso  1.000000 H
   H6         1.0     0.500000      0.000000      0.166476     Biso  1.000000 H
   H7         1.0     0.000000      0.500000      0.033295     Biso  1.000000 H
   H8         1.0     0.000000      0.500000      0.099886     Biso  1.000000 H
   H9         1.0     0.000000      0.500000      0.166476     Biso  1.000000 H
   H10        1.0     0.500000      0.500000      0.199771     Biso  1.000000 H
