LAMMPS (28 Jun 2014)
#-------------------------------------------------------------------------
# thermostats, it sets up the Nbins bins with a sinusoidal temperature
# distribution. Then the phase-space is stored `nEnsembles' times. Finally
# each ensemble (realization) is relaxed under NVE conditions.
#-------------------------------------------------------------------------
dimension       3
boundary        p p p
units           metal
atom_style      atomic

# variables for interatomic potential
variable sig equal 3.4 	        # sigma in LJ potential
variable cut equal 4.5*3.4
variable eps equal  0.01025423  # epsilon

variable skin equal 0.5*3.4
neighbor 1.7 bin

# Variables defined to store data, run MD simulation
variable nev equal 10
variable nrep equal 1000
variable nfreq0 equal 10*1000
variable runtime0 equal 200*10000
variable ndump equal 2000000

# Variable to set number of bins or layers
variable Nbins equal 11

# Variable to set the base temperature and amplitude of the sinusoidal
# temperature distribution distribution
variable theta0   equal 35.0
variable theta2   equal 2*35
variable dtheta0  equal 0.1*35

# Variable to set damping time of the Langevin thermostat
variable tdamp  equal 1.0

# create geometry
# The lattice parameter is obtained after running the sysetm with NPT ensemble
variable nx equal 0.01+3*11
variable ny equal 4

lattice          fcc 5.325
Lattice spacing in x,y,z = 5.325 5.325 5.325
region	         box block 0.01 33.01 0 4 0 4
create_box       1 box
Created orthogonal box = (0.05325 0 0) to (175.778 21.3 21.3)
create_atoms	 1 region box
Created 2112 atoms

# Set mass
mass             * 39.948

# Set interatomic potential
pair_style      lj/cut 15.3
pair_coeff      * * 0.01025423 3.4

#------------------------------------------------------------------
# Divide into 'Nbins' bins and then independent Langevin thermostats
# are applied to all bins with target temperature of the following
# sinusoidal form along x-axis:
#
#  T_n = theta0 + dtheta0 cos(2 \pi n/(Nbins-1)), 0 <= n <= Nbins-1,
#
#  where n is the bin number.
#------------------------------------------------------------------

velocity    all create 70 4459 mom yes rot yes dist gaussian

fix 100 all langevin/layer 35 3.5 1 48279 11
fix 200 all nve

# To observe the global temperature evolution
compute 1 all temp
fix gb_t all ave/time 10 1000 10000 c_1 ave running

timestep        0.002
thermo	        10000
thermo_style	custom step temp f_gb_t etotal press vol

dump		1 all xyz 2000000 beam0.xyz
run	        2000000
Step Temp gb_t TotEng Press Volume
0           70            0   -163.70699   -885.89377    79724.675
Averages over the last 101 of 201 rows, steps 1000000 to 2000000:
Temp gb_t TotEng Press Volume
35.4511 35.3633 -163.915 -5.68194 79724.7
Loop time of 3126.93 on 24 procs for 2000000 steps with 2112 atoms

Pair  time (%) = 1590.92 (50.8779)
Neigh time (%) = 18.4142 (0.588891)
Comm  time (%) = 1306.32 (41.7764)
Outpt time (%) = 0.0881271 (0.00281833)
Other time (%) = 211.192 (6.75399)

#------------------------------------------------------------------
# Store the positions and momenta of all atoms after each 'nfreq0'
# time-steps in ICEns.*.file, which helps prepare initial conditions
# for 'nEnsembles' realizations (ensembles).
#------------------------------------------------------------------

variable nEnsembles equal 50
variable runtimeStore equal 50*10000

restart		10000 ICEns.*.file

run	        500000
Step Temp gb_t TotEng Press Volume
2000000    35.468732    35.365347   -163.83169     4.620706    79724.675
Averages over the last 26 of 51 rows, steps 2250000 to 2500000:
Temp gb_t TotEng Press Volume
35.334 35.356 -163.997 -10.9997 79724.7
Loop time of 788.117 on 24 procs for 500000 steps with 2112 atoms

Pair  time (%) = 395.912 (50.2352)
Neigh time (%) = 4.51284 (0.57261)
Comm  time (%) = 334.24 (42.4099)
Outpt time (%) = 0.200098 (0.0253894)
Other time (%) = 53.2524 (6.75691)

#------------------------------------------------------------------
# Now relax the system from sinusoidal temperature distribution to
# achieve the steady state by switching the thermostats off.
#------------------------------------------------------------------

# Variables defined to store data, run MD simulation for 'nEnsembles'
# ensembles (realizations)
variable nev equal     5
variable nrep equal    100
variable nfreq equal   5*100
variable nprofs equal  100           # number of profiles for each realization
variable runtime equal 100*500

label      loop
variable   i loop 50
    variable n equal 2000000+1*10000
    clear
    read_restart ICEns.2010000.file
  orthogonal box = (0.05325 0 0) to (175.778 21.3 21.3)
  2112 atoms

    reset_timestep 0

    # Perform NVE simulation
    fix 200 all nve

    # compute temperature and heat flux for all bins by averaging over
    # 'nfreq = nev*nrep' data and store in 'tempFlux.*.ensemble', where '*'
    # represents the ensemble number

    compute 1 all temp

    compute myPE all pe/atom
    compute myStress all stress/atom NULL virial
    compute 5 all temp/heat/flux/layer myPE myStress 11

    # If both temperature and heat current recorded (uncomment the following two lines)
    fix 16 all binAve/time 5 100 500 11 2 c_5 ave one file tempCurrent.$i.ensemble mode vector            title2 "# Bin  Temperature       Heat-current" title3 "#------------------------------------"
    fix 16 all binAve/time 5 100 500 11 2 c_5 ave one file tempCurrent.1.ensemble mode vector            title2 "# Bin  Temperature       Heat-current" title3 "#------------------------------------"

    # If only temperature is recorded (uncomment the following two lines)

    # Just for tracking the global temperature
    fix gb_t all ave/time 5 100 500 c_1 ave running

    # run
    timestep   0.001
    thermo     500
    thermo_style  custom step temp f_gb_t etotal press

    # dump for only the first ensemble and only once after runtime
dump	1 all xyz 50000 $i.xyz
dump	1 all xyz 50000 1.xyz
    run	     50000
Step Temp gb_t TotEng Press
0    35.174484            0   -163.93255   0.32214876
Averages over the last 51 of 101 rows, steps 25000 to 50000:
Temp gb_t TotEng Press
35.388 35.4165 -163.933 -5.81058
Loop time of 134.964 on 24 procs for 50000 steps with 2112 atoms

Pair  time (%) = 49.5499 (36.7135)
Neigh time (%) = 0.0835212 (0.0618842)
Comm  time (%) = 34.7671 (25.7604)
Outpt time (%) = 0.0447603 (0.0331647)
Other time (%) = 50.5184 (37.4311)

    next   i
    jump   in.sinusoidal loop
variable   i loop 50
    variable n equal 2000000+2*10000
    clear
    read_restart ICEns.2020000.file
  orthogonal box = (0.05325 0 0) to (175.778 21.3 21.3)
  2112 atoms

    reset_timestep 0

    # Perform NVE simulation
    fix 200 all nve

    # compute temperature and heat flux for all bins by averaging over
    # 'nfreq = nev*nrep' data and store in 'tempFlux.*.ensemble', where '*'
    # represents the ensemble number

    compute 1 all temp

    compute myPE all pe/atom
    compute myStress all stress/atom NULL virial
    compute 5 all temp/heat/flux/layer myPE myStress 11

    # If both temperature and heat current recorded (uncomment the following two lines)
    fix 16 all binAve/time 5 100 500 11 2 c_5 ave one file tempCurrent.$i.ensemble mode vector            title2 "# Bin  Temperature       Heat-current" title3 "#------------------------------------"
    fix 16 all binAve/time 5 100 500 11 2 c_5 ave one file tempCurrent.2.ensemble mode vector            title2 "# Bin  Temperature       Heat-current" title3 "#------------------------------------"

    # If only temperature is recorded (uncomment the following two lines)

    # Just for tracking the global temperature
    fix gb_t all ave/time 5 100 500 c_1 ave running

    # run
    timestep   0.001
    thermo     500
    thermo_style  custom step temp f_gb_t etotal press

    # dump for only the first ensemble and only once after runtime
    run	     50000
Step Temp gb_t TotEng Press
0    35.324231            0   -164.09837   -21.762016
Averages over the last 51 of 101 rows, steps 25000 to 50000:
Temp gb_t TotEng Press
35.2472 35.0928 -164.1 -20.1318
Loop time of 136.267 on 24 procs for 50000 steps with 2112 atoms

Pair  time (%) = 49.1574 (36.0743)
Neigh time (%) = 0.0662046 (0.0485845)
Comm  time (%) = 36.3438 (26.6711)
Outpt time (%) = 0.0434035 (0.0318518)
Other time (%) = 50.6561 (37.1742)

    next   i
    jump   in.sinusoidal loop
variable   i loop 50
    variable n equal 2000000+3*10000
    clear
    read_restart ICEns.2030000.file
  orthogonal box = (0.05325 0 0) to (175.778 21.3 21.3)
  2112 atoms

    reset_timestep 0

    # Perform NVE simulation
    fix 200 all nve

    # compute temperature and heat flux for all bins by averaging over
    # 'nfreq = nev*nrep' data and store in 'tempFlux.*.ensemble', where '*'
    # represents the ensemble number

    compute 1 all temp

    compute myPE all pe/atom
    compute myStress all stress/atom NULL virial
    compute 5 all temp/heat/flux/layer myPE myStress 11

    # If both temperature and heat current recorded (uncomment the following two lines)
    fix 16 all binAve/time 5 100 500 11 2 c_5 ave one file tempCurrent.$i.ensemble mode vector            title2 "# Bin  Temperature       Heat-current" title3 "#------------------------------------"
    fix 16 all binAve/time 5 100 500 11 2 c_5 ave one file tempCurrent.3.ensemble mode vector            title2 "# Bin  Temperature       Heat-current" title3 "#------------------------------------"

    # If only temperature is recorded (uncomment the following two lines)

    # Just for tracking the global temperature
    fix gb_t all ave/time 5 100 500 c_1 ave running

    # run
    timestep   0.001
    thermo     500
    thermo_style  custom step temp f_gb_t etotal press

    # dump for only the first ensemble and only once after runtime
    run	     50000
Step Temp gb_t TotEng Press
0    36.398445            0   -163.53626    12.120445
Averages over the last 51 of 101 rows, steps 25000 to 50000:
Temp gb_t TotEng Press
36.18 36.1788 -163.536 16.1115
Loop time of 135.19 on 24 procs for 50000 steps with 2112 atoms

Pair  time (%) = 49.1515 (36.3575)
Neigh time (%) = 0.0827757 (0.0612294)
Comm  time (%) = 35.3252 (26.1301)
Outpt time (%) = 0.0431621 (0.0319271)
Other time (%) = 50.5869 (37.4192)

    next   i
    jump   in.sinusoidal loop
variable   i loop 50
    variable n equal 2000000+4*10000
    clear
    read_restart ICEns.2040000.file
  orthogonal box = (0.05325 0 0) to (175.778 21.3 21.3)
  2112 atoms

    reset_timestep 0

    # Perform NVE simulation
    fix 200 all nve

    # compute temperature and heat flux for all bins by averaging over
    # 'nfreq = nev*nrep' data and store in 'tempFlux.*.ensemble', where '*'
    # represents the ensemble number

    compute 1 all temp

    compute myPE all pe/atom
    compute myStress all stress/atom NULL virial
    compute 5 all temp/heat/flux/layer myPE myStress 11

    # If both temperature and heat current recorded (uncomment the following two lines)
    fix 16 all binAve/time 5 100 500 11 2 c_5 ave one file tempCurrent.$i.ensemble mode vector            title2 "# Bin  Temperature       Heat-current" title3 "#------------------------------------"
    fix 16 all binAve/time 5 100 500 11 2 c_5 ave one file tempCurrent.4.ensemble mode vector            title2 "# Bin  Temperature       Heat-current" title3 "#------------------------------------"

    # If only temperature is recorded (uncomment the following two lines)

    # Just for tracking the global temperature
    fix gb_t all ave/time 5 100 500 c_1 ave running

    # run
    timestep   0.001
    thermo     500
    thermo_style  custom step temp f_gb_t etotal press

    # dump for only the first ensemble and only once after runtime
    run	     50000
Step Temp gb_t TotEng Press
0     34.35256            0   -164.38782   -30.774274
Averages over the last 51 of 101 rows, steps 25000 to 50000:
Temp gb_t TotEng Press
34.4866 34.5445 -164.387 -31.9731
Loop time of 135.836 on 24 procs for 50000 steps with 2112 atoms

Pair  time (%) = 49.1315 (36.1698)
Neigh time (%) = 0.0736034 (0.0541855)
Comm  time (%) = 35.6123 (26.2172)
Outpt time (%) = 0.0432742 (0.0318577)
Other time (%) = 50.9751 (37.527)

    next   i
    jump   in.sinusoidal loop
variable   i loop 50
    variable n equal 2000000+5*10000
    clear
    read_restart ICEns.2050000.file
  orthogonal box = (0.05325 0 0) to (175.778 21.3 21.3)
  2112 atoms

    reset_timestep 0

    # Perform NVE simulation
    fix 200 all nve

    # compute temperature and heat flux for all bins by averaging over
    # 'nfreq = nev*nrep' data and store in 'tempFlux.*.ensemble', where '*'
    # represents the ensemble number

    compute 1 all temp

    compute myPE all pe/atom
    compute myStress all stress/atom NULL virial
    compute 5 all temp/heat/flux/layer myPE myStress 11

    # If both temperature and heat current recorded (uncomment the following two lines)
    fix 16 all binAve/time 5 100 500 11 2 c_5 ave one file tempCurrent.$i.ensemble mode vector            title2 "# Bin  Temperature       Heat-current" title3 "#------------------------------------"
    fix 16 all binAve/time 5 100 500 11 2 c_5 ave one file tempCurrent.5.ensemble mode vector            title2 "# Bin  Temperature       Heat-current" title3 "#------------------------------------"

    # If only temperature is recorded (uncomment the following two lines)

    # Just for tracking the global temperature
    fix gb_t all ave/time 5 100 500 c_1 ave running

    # run
    timestep   0.001
    thermo     500
    thermo_style  custom step temp f_gb_t etotal press

    # dump for only the first ensemble and only once after runtime
    run	     50000
Step Temp gb_t TotEng Press
0    35.580882            0   -164.02957   -22.892148
Averages over the last 51 of 101 rows, steps 25000 to 50000:
Temp gb_t TotEng Press
35.2185 35.2294 -164.031 -12.0629
Loop time of 134.763 on 24 procs for 50000 steps with 2112 atoms

Pair  time (%) = 48.9264 (36.3054)
Neigh time (%) = 0.0725424 (0.0538294)
Comm  time (%) = 34.7634 (25.7958)
Outpt time (%) = 0.0437201 (0.0324421)
Other time (%) = 50.9575 (37.8125)

    next   i
    jump   in.sinusoidal loop
variable   i loop 50
    variable n equal 2000000+6*10000
    clear
    read_restart ICEns.2060000.file
  orthogonal box = (0.05325 0 0) to (175.778 21.3 21.3)
  2112 atoms

    reset_timestep 0

    # Perform NVE simulation
    fix 200 all nve

    # compute temperature and heat flux for all bins by averaging over
    # 'nfreq = nev*nrep' data and store in 'tempFlux.*.ensemble', where '*'
    # represents the ensemble number

    compute 1 all temp

    compute myPE all pe/atom
    compute myStress all stress/atom NULL virial
    compute 5 all temp/heat/flux/layer myPE myStress 11

    # If both temperature and heat current recorded (uncomment the following two lines)
    fix 16 all binAve/time 5 100 500 11 2 c_5 ave one file tempCurrent.$i.ensemble mode vector            title2 "# Bin  Temperature       Heat-current" title3 "#------------------------------------"
    fix 16 all binAve/time 5 100 500 11 2 c_5 ave one file tempCurrent.6.ensemble mode vector            title2 "# Bin  Temperature       Heat-current" title3 "#------------------------------------"

    # If only temperature is recorded (uncomment the following two lines)

    # Just for tracking the global temperature
    fix gb_t all ave/time 5 100 500 c_1 ave running

    # run
    timestep   0.001
    thermo     500
    thermo_style  custom step temp f_gb_t etotal press

    # dump for only the first ensemble and only once after runtime
    run	     50000
Step Temp gb_t TotEng Press
0    36.081098            0   -163.94426   -24.397356
Averages over the last 51 of 101 rows, steps 25000 to 50000:
Temp gb_t TotEng Press
35.3129 35.3919 -163.945 -5.1706
Loop time of 135.537 on 24 procs for 50000 steps with 2112 atoms

Pair  time (%) = 48.9885 (36.144)
Neigh time (%) = 0.0807459 (0.0595747)
Comm  time (%) = 35.6715 (26.3187)
Outpt time (%) = 0.0436869 (0.0322325)
Other time (%) = 50.7526 (37.4455)

    next   i
    jump   in.sinusoidal loop
variable   i loop 50
    variable n equal 2000000+7*10000
    clear
    read_restart ICEns.2070000.file
  orthogonal box = (0.05325 0 0) to (175.778 21.3 21.3)
  2112 atoms

    reset_timestep 0

    # Perform NVE simulation
    fix 200 all nve

    # compute temperature and heat flux for all bins by averaging over
    # 'nfreq = nev*nrep' data and store in 'tempFlux.*.ensemble', where '*'
    # represents the ensemble number

    compute 1 all temp

    compute myPE all pe/atom
    compute myStress all stress/atom NULL virial
    compute 5 all temp/heat/flux/layer myPE myStress 11

    # If both temperature and heat current recorded (uncomment the following two lines)
    fix 16 all binAve/time 5 100 500 11 2 c_5 ave one file tempCurrent.$i.ensemble mode vector            title2 "# Bin  Temperature       Heat-current" title3 "#------------------------------------"
    fix 16 all binAve/time 5 100 500 11 2 c_5 ave one file tempCurrent.7.ensemble mode vector            title2 "# Bin  Temperature       Heat-current" title3 "#------------------------------------"

    # If only temperature is recorded (uncomment the following two lines)

    # Just for tracking the global temperature
    fix gb_t all ave/time 5 100 500 c_1 ave running

    # run
    timestep   0.001
    thermo     500
    thermo_style  custom step temp f_gb_t etotal press

    # dump for only the first ensemble and only once after runtime
    run	     50000
Step Temp gb_t TotEng Press
0    34.150042            0   -164.25826   -7.1316202
Averages over the last 51 of 101 rows, steps 25000 to 50000:
Temp gb_t TotEng Press
34.8878 34.7891 -164.257 -28.1569
Loop time of 135.818 on 24 procs for 50000 steps with 2112 atoms

Pair  time (%) = 49.0275 (36.0981)
Neigh time (%) = 0.0690543 (0.0508434)
Comm  time (%) = 36.1428 (26.6113)
Outpt time (%) = 0.0434184 (0.0319682)
Other time (%) = 50.5347 (37.2078)

    next   i
    jump   in.sinusoidal loop
variable   i loop 50
    variable n equal 2000000+8*10000
    clear
    read_restart ICEns.2080000.file
  orthogonal box = (0.05325 0 0) to (175.778 21.3 21.3)
  2112 atoms

    reset_timestep 0

    # Perform NVE simulation
    fix 200 all nve

    # compute temperature and heat flux for all bins by averaging over
    # 'nfreq = nev*nrep' data and store in 'tempFlux.*.ensemble', where '*'
    # represents the ensemble number

    compute 1 all temp

    compute myPE all pe/atom
    compute myStress all stress/atom NULL virial
    compute 5 all temp/heat/flux/layer myPE myStress 11

    # If both temperature and heat current recorded (uncomment the following two lines)
    fix 16 all binAve/time 5 100 500 11 2 c_5 ave one file tempCurrent.$i.ensemble mode vector            title2 "# Bin  Temperature       Heat-current" title3 "#------------------------------------"
    fix 16 all binAve/time 5 100 500 11 2 c_5 ave one file tempCurrent.8.ensemble mode vector            title2 "# Bin  Temperature       Heat-current" title3 "#------------------------------------"

    # If only temperature is recorded (uncomment the following two lines)

    # Just for tracking the global temperature
    fix gb_t all ave/time 5 100 500 c_1 ave running

    # run
    timestep   0.001
    thermo     500
    thermo_style  custom step temp f_gb_t etotal press

    # dump for only the first ensemble and only once after runtime
    run	     50000
Step Temp gb_t TotEng Press
0    34.854338            0    -164.0867   -9.2099452
Averages over the last 51 of 101 rows, steps 25000 to 50000:
Temp gb_t TotEng Press
35.0478 35.1167 -164.086 -13.4042
Loop time of 134.12 on 24 procs for 50000 steps with 2112 atoms

Pair  time (%) = 48.8792 (36.4444)
Neigh time (%) = 0.0743886 (0.0554642)
Comm  time (%) = 34.3628 (25.621)
Outpt time (%) = 0.0459005 (0.0342235)
Other time (%) = 50.7577 (37.845)

    next   i
    jump   in.sinusoidal loop
variable   i loop 50
    variable n equal 2000000+9*10000
    clear
    read_restart ICEns.2090000.file
  orthogonal box = (0.05325 0 0) to (175.778 21.3 21.3)
  2112 atoms

    reset_timestep 0

    # Perform NVE simulation
    fix 200 all nve

    # compute temperature and heat flux for all bins by averaging over
    # 'nfreq = nev*nrep' data and store in 'tempFlux.*.ensemble', where '*'
    # represents the ensemble number

    compute 1 all temp

    compute myPE all pe/atom
    compute myStress all stress/atom NULL virial
    compute 5 all temp/heat/flux/layer myPE myStress 11

    # If both temperature and heat current recorded (uncomment the following two lines)
    fix 16 all binAve/time 5 100 500 11 2 c_5 ave one file tempCurrent.$i.ensemble mode vector            title2 "# Bin  Temperature       Heat-current" title3 "#------------------------------------"
    fix 16 all binAve/time 5 100 500 11 2 c_5 ave one file tempCurrent.9.ensemble mode vector            title2 "# Bin  Temperature       Heat-current" title3 "#------------------------------------"

    # If only temperature is recorded (uncomment the following two lines)

    # Just for tracking the global temperature
    fix gb_t all ave/time 5 100 500 c_1 ave running

    # run
    timestep   0.001
    thermo     500
    thermo_style  custom step temp f_gb_t etotal press

    # dump for only the first ensemble and only once after runtime
    run	     50000
Step Temp gb_t TotEng Press
0    34.102369            0   -164.17364    3.9569569
Averages over the last 51 of 101 rows, steps 25000 to 50000:
Temp gb_t TotEng Press
34.9814 34.951 -164.173 -21.5624
Loop time of 135.092 on 24 procs for 50000 steps with 2112 atoms

Pair  time (%) = 48.9345 (36.2232)
Neigh time (%) = 0.0621992 (0.0460423)
Comm  time (%) = 35.4468 (26.2391)
Outpt time (%) = 0.0433405 (0.0320823)
Other time (%) = 50.6047 (37.4596)

    next   i
    jump   in.sinusoidal loop
variable   i loop 50
    variable n equal 2000000+10*10000
    clear
    read_restart ICEns.2100000.file
  orthogonal box = (0.05325 0 0) to (175.778 21.3 21.3)
  2112 atoms

    reset_timestep 0

    # Perform NVE simulation
    fix 200 all nve

    # compute temperature and heat flux for all bins by averaging over
    # 'nfreq = nev*nrep' data and store in 'tempFlux.*.ensemble', where '*'
    # represents the ensemble number

    compute 1 all temp

    compute myPE all pe/atom
    compute myStress all stress/atom NULL virial
    compute 5 all temp/heat/flux/layer myPE myStress 11

    # If both temperature and heat current recorded (uncomment the following two lines)
    fix 16 all binAve/time 5 100 500 11 2 c_5 ave one file tempCurrent.$i.ensemble mode vector            title2 "# Bin  Temperature       Heat-current" title3 "#------------------------------------"
    fix 16 all binAve/time 5 100 500 11 2 c_5 ave one file tempCurrent.10.ensemble mode vector            title2 "# Bin  Temperature       Heat-current" title3 "#------------------------------------"

    # If only temperature is recorded (uncomment the following two lines)

    # Just for tracking the global temperature
    fix gb_t all ave/time 5 100 500 c_1 ave running

    # run
    timestep   0.001
    thermo     500
    thermo_style  custom step temp f_gb_t etotal press

    # dump for only the first ensemble and only once after runtime
    run	     50000
Step Temp gb_t TotEng Press
0    34.699541            0   -164.18104   -13.464726
Averages over the last 51 of 101 rows, steps 25000 to 50000:
Temp gb_t TotEng Press
34.9617 34.9301 -164.18 -21.6721
Loop time of 135.394 on 24 procs for 50000 steps with 2112 atoms

Pair  time (%) = 49.0606 (36.2353)
Neigh time (%) = 0.0927495 (0.0685032)
Comm  time (%) = 35.1058 (25.9286)
Outpt time (%) = 0.0434462 (0.0320886)
Other time (%) = 51.0918 (37.7355)

    next   i
    jump   in.sinusoidal loop
variable   i loop 50
    variable n equal 2000000+11*10000
    clear
    read_restart ICEns.2110000.file
  orthogonal box = (0.05325 0 0) to (175.778 21.3 21.3)
  2112 atoms

    reset_timestep 0

    # Perform NVE simulation
    fix 200 all nve

    # compute temperature and heat flux for all bins by averaging over
    # 'nfreq = nev*nrep' data and store in 'tempFlux.*.ensemble', where '*'
    # represents the ensemble number

    compute 1 all temp

    compute myPE all pe/atom
    compute myStress all stress/atom NULL virial
    compute 5 all temp/heat/flux/layer myPE myStress 11

    # If both temperature and heat current recorded (uncomment the following two lines)
    fix 16 all binAve/time 5 100 500 11 2 c_5 ave one file tempCurrent.$i.ensemble mode vector            title2 "# Bin  Temperature       Heat-current" title3 "#------------------------------------"
    fix 16 all binAve/time 5 100 500 11 2 c_5 ave one file tempCurrent.11.ensemble mode vector            title2 "# Bin  Temperature       Heat-current" title3 "#------------------------------------"

    # If only temperature is recorded (uncomment the following two lines)

    # Just for tracking the global temperature
    fix gb_t all ave/time 5 100 500 c_1 ave running

    # run
    timestep   0.001
    thermo     500
    thermo_style  custom step temp f_gb_t etotal press

    # dump for only the first ensemble and only once after runtime
    run	     50000
Step Temp gb_t TotEng Press
0    35.145412            0   -164.14454   -23.503971
Averages over the last 51 of 101 rows, steps 25000 to 50000:
Temp gb_t TotEng Press
34.9412 35.0275 -164.144 -17.3764
Loop time of 135.928 on 24 procs for 50000 steps with 2112 atoms

Pair  time (%) = 49.0575 (36.0907)
Neigh time (%) = 0.0791627 (0.0582385)
Comm  time (%) = 35.951 (26.4485)
Outpt time (%) = 0.0436039 (0.0320786)
Other time (%) = 50.7971 (37.3705)

    next   i
    jump   in.sinusoidal loop
variable   i loop 50
    variable n equal 2000000+12*10000
    clear
    read_restart ICEns.2120000.file
  orthogonal box = (0.05325 0 0) to (175.778 21.3 21.3)
  2112 atoms

    reset_timestep 0

    # Perform NVE simulation
    fix 200 all nve

    # compute temperature and heat flux for all bins by averaging over
    # 'nfreq = nev*nrep' data and store in 'tempFlux.*.ensemble', where '*'
    # represents the ensemble number

    compute 1 all temp

    compute myPE all pe/atom
    compute myStress all stress/atom NULL virial
    compute 5 all temp/heat/flux/layer myPE myStress 11

    # If both temperature and heat current recorded (uncomment the following two lines)
    fix 16 all binAve/time 5 100 500 11 2 c_5 ave one file tempCurrent.$i.ensemble mode vector            title2 "# Bin  Temperature       Heat-current" title3 "#------------------------------------"
    fix 16 all binAve/time 5 100 500 11 2 c_5 ave one file tempCurrent.12.ensemble mode vector            title2 "# Bin  Temperature       Heat-current" title3 "#------------------------------------"

    # If only temperature is recorded (uncomment the following two lines)

    # Just for tracking the global temperature
    fix gb_t all ave/time 5 100 500 c_1 ave running

    # run
    timestep   0.001
    thermo     500
    thermo_style  custom step temp f_gb_t etotal press

    # dump for only the first ensemble and only once after runtime
    run	     50000
Step Temp gb_t TotEng Press
0    35.873932            0   -163.75797    1.4547864
Averages over the last 51 of 101 rows, steps 25000 to 50000:
Temp gb_t TotEng Press
35.8175 35.7466 -163.759 1.65535
Loop time of 135.526 on 24 procs for 50000 steps with 2112 atoms

Pair  time (%) = 48.9526 (36.1204)
Neigh time (%) = 0.0666239 (0.0491595)
Comm  time (%) = 35.4746 (26.1755)
Outpt time (%) = 0.0434248 (0.0320416)
Other time (%) = 50.9888 (37.6229)

    next   i
    jump   in.sinusoidal loop
variable   i loop 50
    variable n equal 2000000+13*10000
    clear
    read_restart ICEns.2130000.file
  orthogonal box = (0.05325 0 0) to (175.778 21.3 21.3)
  2112 atoms

    reset_timestep 0

    # Perform NVE simulation
    fix 200 all nve

    # compute temperature and heat flux for all bins by averaging over
    # 'nfreq = nev*nrep' data and store in 'tempFlux.*.ensemble', where '*'
    # represents the ensemble number

    compute 1 all temp

    compute myPE all pe/atom
    compute myStress all stress/atom NULL virial
    compute 5 all temp/heat/flux/layer myPE myStress 11

    # If both temperature and heat current recorded (uncomment the following two lines)
    fix 16 all binAve/time 5 100 500 11 2 c_5 ave one file tempCurrent.$i.ensemble mode vector            title2 "# Bin  Temperature       Heat-current" title3 "#------------------------------------"
    fix 16 all binAve/time 5 100 500 11 2 c_5 ave one file tempCurrent.13.ensemble mode vector            title2 "# Bin  Temperature       Heat-current" title3 "#------------------------------------"

    # If only temperature is recorded (uncomment the following two lines)

    # Just for tracking the global temperature
    fix gb_t all ave/time 5 100 500 c_1 ave running

    # run
    timestep   0.001
    thermo     500
    thermo_style  custom step temp f_gb_t etotal press

    # dump for only the first ensemble and only once after runtime
    run	     50000
Step Temp gb_t TotEng Press
0    35.645095            0   -164.13107   -33.895342
Averages over the last 51 of 101 rows, steps 25000 to 50000:
Temp gb_t TotEng Press
34.9752 35.0374 -164.13 -16.6428
Loop time of 134.316 on 24 procs for 50000 steps with 2112 atoms

Pair  time (%) = 48.8101 (36.3397)
Neigh time (%) = 0.0673406 (0.0501358)
Comm  time (%) = 34.6002 (25.7602)
Outpt time (%) = 0.0435464 (0.0324208)
Other time (%) = 50.7952 (37.8176)

    next   i
    jump   in.sinusoidal loop
variable   i loop 50
    variable n equal 2000000+14*10000
    clear
    read_restart ICEns.2140000.file
  orthogonal box = (0.05325 0 0) to (175.778 21.3 21.3)
  2112 atoms

    reset_timestep 0

    # Perform NVE simulation
    fix 200 all nve

    # compute temperature and heat flux for all bins by averaging over
    # 'nfreq = nev*nrep' data and store in 'tempFlux.*.ensemble', where '*'
    # represents the ensemble number

    compute 1 all temp

    compute myPE all pe/atom
    compute myStress all stress/atom NULL virial
    compute 5 all temp/heat/flux/layer myPE myStress 11

    # If both temperature and heat current recorded (uncomment the following two lines)
    fix 16 all binAve/time 5 100 500 11 2 c_5 ave one file tempCurrent.$i.ensemble mode vector            title2 "# Bin  Temperature       Heat-current" title3 "#------------------------------------"
    fix 16 all binAve/time 5 100 500 11 2 c_5 ave one file tempCurrent.14.ensemble mode vector            title2 "# Bin  Temperature       Heat-current" title3 "#------------------------------------"

    # If only temperature is recorded (uncomment the following two lines)

    # Just for tracking the global temperature
    fix gb_t all ave/time 5 100 500 c_1 ave running

    # run
    timestep   0.001
    thermo     500
    thermo_style  custom step temp f_gb_t etotal press

    # dump for only the first ensemble and only once after runtime
    run	     50000
Step Temp gb_t TotEng Press
0    34.808767            0   -164.20393   -18.930868
Averages over the last 51 of 101 rows, steps 25000 to 50000:
Temp gb_t TotEng Press
34.8937 34.8998 -164.203 -22.2104
Loop time of 135.369 on 24 procs for 50000 steps with 2112 atoms

Pair  time (%) = 48.7854 (36.0387)
Neigh time (%) = 0.0717764 (0.0530226)
Comm  time (%) = 35.5492 (26.2609)
Outpt time (%) = 0.0435828 (0.0321955)
Other time (%) = 50.9195 (37.6152)

    next   i
    jump   in.sinusoidal loop
variable   i loop 50
    variable n equal 2000000+15*10000
    clear
    read_restart ICEns.2150000.file
  orthogonal box = (0.05325 0 0) to (175.778 21.3 21.3)
  2112 atoms

    reset_timestep 0

    # Perform NVE simulation
    fix 200 all nve

    # compute temperature and heat flux for all bins by averaging over
    # 'nfreq = nev*nrep' data and store in 'tempFlux.*.ensemble', where '*'
    # represents the ensemble number

    compute 1 all temp

    compute myPE all pe/atom
    compute myStress all stress/atom NULL virial
    compute 5 all temp/heat/flux/layer myPE myStress 11

    # If both temperature and heat current recorded (uncomment the following two lines)
    fix 16 all binAve/time 5 100 500 11 2 c_5 ave one file tempCurrent.$i.ensemble mode vector            title2 "# Bin  Temperature       Heat-current" title3 "#------------------------------------"
    fix 16 all binAve/time 5 100 500 11 2 c_5 ave one file tempCurrent.15.ensemble mode vector            title2 "# Bin  Temperature       Heat-current" title3 "#------------------------------------"

    # If only temperature is recorded (uncomment the following two lines)

    # Just for tracking the global temperature
    fix gb_t all ave/time 5 100 500 c_1 ave running

    # run
    timestep   0.001
    thermo     500
    thermo_style  custom step temp f_gb_t etotal press

    # dump for only the first ensemble and only once after runtime
    run	     50000
Step Temp gb_t TotEng Press
0    35.008382            0   -164.18124   -19.695729
Averages over the last 51 of 101 rows, steps 25000 to 50000:
Temp gb_t TotEng Press
34.8732 34.9223 -164.182 -19.6806
Loop time of 135.064 on 24 procs for 50000 steps with 2112 atoms

Pair  time (%) = 48.8846 (36.1938)
Neigh time (%) = 0.0717457 (0.0531199)
Comm  time (%) = 35.4603 (26.2545)
Outpt time (%) = 0.0431433 (0.0319429)
Other time (%) = 50.6039 (37.4667)

    next   i
    jump   in.sinusoidal loop
variable   i loop 50
    variable n equal 2000000+16*10000
    clear
    read_restart ICEns.2160000.file
  orthogonal box = (0.05325 0 0) to (175.778 21.3 21.3)
  2112 atoms

    reset_timestep 0

    # Perform NVE simulation
    fix 200 all nve

    # compute temperature and heat flux for all bins by averaging over
    # 'nfreq = nev*nrep' data and store in 'tempFlux.*.ensemble', where '*'
    # represents the ensemble number

    compute 1 all temp

    compute myPE all pe/atom
    compute myStress all stress/atom NULL virial
    compute 5 all temp/heat/flux/layer myPE myStress 11

    # If both temperature and heat current recorded (uncomment the following two lines)
    fix 16 all binAve/time 5 100 500 11 2 c_5 ave one file tempCurrent.$i.ensemble mode vector            title2 "# Bin  Temperature       Heat-current" title3 "#------------------------------------"
    fix 16 all binAve/time 5 100 500 11 2 c_5 ave one file tempCurrent.16.ensemble mode vector            title2 "# Bin  Temperature       Heat-current" title3 "#------------------------------------"

    # If only temperature is recorded (uncomment the following two lines)

    # Just for tracking the global temperature
    fix gb_t all ave/time 5 100 500 c_1 ave running

    # run
    timestep   0.001
    thermo     500
    thermo_style  custom step temp f_gb_t etotal press

    # dump for only the first ensemble and only once after runtime
    run	     50000
Step Temp gb_t TotEng Press
0    36.866077            0   -163.42255    11.631629
Averages over the last 51 of 101 rows, steps 25000 to 50000:
Temp gb_t TotEng Press
36.3938 36.3911 -163.422 23.2726
Loop time of 135.751 on 24 procs for 50000 steps with 2112 atoms

Pair  time (%) = 49.0454 (36.1289)
Neigh time (%) = 0.0947109 (0.069768)
Comm  time (%) = 35.6052 (26.2283)
Outpt time (%) = 0.0434038 (0.0319731)
Other time (%) = 50.9625 (37.5411)

    next   i
    jump   in.sinusoidal loop
variable   i loop 50
    variable n equal 2000000+17*10000
    clear
    read_restart ICEns.2170000.file
  orthogonal box = (0.05325 0 0) to (175.778 21.3 21.3)
  2112 atoms

    reset_timestep 0

    # Perform NVE simulation
    fix 200 all nve

    # compute temperature and heat flux for all bins by averaging over
    # 'nfreq = nev*nrep' data and store in 'tempFlux.*.ensemble', where '*'
    # represents the ensemble number

    compute 1 all temp

    compute myPE all pe/atom
    compute myStress all stress/atom NULL virial
    compute 5 all temp/heat/flux/layer myPE myStress 11

    # If both temperature and heat current recorded (uncomment the following two lines)
    fix 16 all binAve/time 5 100 500 11 2 c_5 ave one file tempCurrent.$i.ensemble mode vector            title2 "# Bin  Temperature       Heat-current" title3 "#------------------------------------"
    fix 16 all binAve/time 5 100 500 11 2 c_5 ave one file tempCurrent.17.ensemble mode vector            title2 "# Bin  Temperature       Heat-current" title3 "#------------------------------------"

    # If only temperature is recorded (uncomment the following two lines)

    # Just for tracking the global temperature
    fix gb_t all ave/time 5 100 500 c_1 ave running

    # run
    timestep   0.001
    thermo     500
    thermo_style  custom step temp f_gb_t etotal press

    # dump for only the first ensemble and only once after runtime
    run	     50000
Step Temp gb_t TotEng Press
0    35.201346            0   -164.08285   -16.182812
Averages over the last 51 of 101 rows, steps 25000 to 50000:
Temp gb_t TotEng Press
35.2294 35.1172 -164.084 -18.0455
Loop time of 134.839 on 24 procs for 50000 steps with 2112 atoms

Pair  time (%) = 48.7897 (36.1837)
Neigh time (%) = 0.0510854 (0.0378862)
Comm  time (%) = 35.26 (26.1498)
Outpt time (%) = 0.0433907 (0.0321797)
Other time (%) = 50.6946 (37.5965)

    next   i
    jump   in.sinusoidal loop
variable   i loop 50
    variable n equal 2000000+18*10000
    clear
    read_restart ICEns.2180000.file
  orthogonal box = (0.05325 0 0) to (175.778 21.3 21.3)
  2112 atoms

    reset_timestep 0

    # Perform NVE simulation
    fix 200 all nve

    # compute temperature and heat flux for all bins by averaging over
    # 'nfreq = nev*nrep' data and store in 'tempFlux.*.ensemble', where '*'
    # represents the ensemble number

    compute 1 all temp

    compute myPE all pe/atom
    compute myStress all stress/atom NULL virial
    compute 5 all temp/heat/flux/layer myPE myStress 11

    # If both temperature and heat current recorded (uncomment the following two lines)
    fix 16 all binAve/time 5 100 500 11 2 c_5 ave one file tempCurrent.$i.ensemble mode vector            title2 "# Bin  Temperature       Heat-current" title3 "#------------------------------------"
    fix 16 all binAve/time 5 100 500 11 2 c_5 ave one file tempCurrent.18.ensemble mode vector            title2 "# Bin  Temperature       Heat-current" title3 "#------------------------------------"

    # If only temperature is recorded (uncomment the following two lines)

    # Just for tracking the global temperature
    fix gb_t all ave/time 5 100 500 c_1 ave running

    # run
    timestep   0.001
    thermo     500
    thermo_style  custom step temp f_gb_t etotal press

    # dump for only the first ensemble and only once after runtime
    run	     50000
Step Temp gb_t TotEng Press
0    36.758702            0   -163.51712    5.5883717
Averages over the last 51 of 101 rows, steps 25000 to 50000:
Temp gb_t TotEng Press
36.2391 36.2049 -163.518 16.9788
Loop time of 135.251 on 24 procs for 50000 steps with 2112 atoms

Pair  time (%) = 48.8964 (36.1524)
Neigh time (%) = 0.0987171 (0.0729881)
Comm  time (%) = 35.5748 (26.3028)
Outpt time (%) = 0.0432295 (0.0319624)
Other time (%) = 50.6378 (37.4399)

    next   i
    jump   in.sinusoidal loop
variable   i loop 50
    variable n equal 2000000+19*10000
    clear
    read_restart ICEns.2190000.file
  orthogonal box = (0.05325 0 0) to (175.778 21.3 21.3)
  2112 atoms

    reset_timestep 0

    # Perform NVE simulation
    fix 200 all nve

    # compute temperature and heat flux for all bins by averaging over
    # 'nfreq = nev*nrep' data and store in 'tempFlux.*.ensemble', where '*'
    # represents the ensemble number

    compute 1 all temp

    compute myPE all pe/atom
    compute myStress all stress/atom NULL virial
    compute 5 all temp/heat/flux/layer myPE myStress 11

    # If both temperature and heat current recorded (uncomment the following two lines)
    fix 16 all binAve/time 5 100 500 11 2 c_5 ave one file tempCurrent.$i.ensemble mode vector            title2 "# Bin  Temperature       Heat-current" title3 "#------------------------------------"
    fix 16 all binAve/time 5 100 500 11 2 c_5 ave one file tempCurrent.19.ensemble mode vector            title2 "# Bin  Temperature       Heat-current" title3 "#------------------------------------"

    # If only temperature is recorded (uncomment the following two lines)

    # Just for tracking the global temperature
    fix gb_t all ave/time 5 100 500 c_1 ave running

    # run
    timestep   0.001
    thermo     500
    thermo_style  custom step temp f_gb_t etotal press

    # dump for only the first ensemble and only once after runtime
    run	     50000
Step Temp gb_t TotEng Press
0    35.099342            0      -163.99   -3.2644331
Averages over the last 51 of 101 rows, steps 25000 to 50000:
Temp gb_t TotEng Press
35.3326 35.3151 -163.99 -10.5735
Loop time of 135.016 on 24 procs for 50000 steps with 2112 atoms

Pair  time (%) = 48.9391 (36.2469)
Neigh time (%) = 0.0651827 (0.0482779)
Comm  time (%) = 35.3391 (26.1741)
Outpt time (%) = 0.043413 (0.032154)
Other time (%) = 50.629 (37.4986)

    next   i
    jump   in.sinusoidal loop
variable   i loop 50
    variable n equal 2000000+20*10000
    clear
    read_restart ICEns.2200000.file
  orthogonal box = (0.05325 0 0) to (175.778 21.3 21.3)
  2112 atoms

    reset_timestep 0

    # Perform NVE simulation
    fix 200 all nve

    # compute temperature and heat flux for all bins by averaging over
    # 'nfreq = nev*nrep' data and store in 'tempFlux.*.ensemble', where '*'
    # represents the ensemble number

    compute 1 all temp

    compute myPE all pe/atom
    compute myStress all stress/atom NULL virial
    compute 5 all temp/heat/flux/layer myPE myStress 11

    # If both temperature and heat current recorded (uncomment the following two lines)
    fix 16 all binAve/time 5 100 500 11 2 c_5 ave one file tempCurrent.$i.ensemble mode vector            title2 "# Bin  Temperature       Heat-current" title3 "#------------------------------------"
    fix 16 all binAve/time 5 100 500 11 2 c_5 ave one file tempCurrent.20.ensemble mode vector            title2 "# Bin  Temperature       Heat-current" title3 "#------------------------------------"

    # If only temperature is recorded (uncomment the following two lines)

    # Just for tracking the global temperature
    fix gb_t all ave/time 5 100 500 c_1 ave running

    # run
    timestep   0.001
    thermo     500
    thermo_style  custom step temp f_gb_t etotal press

    # dump for only the first ensemble and only once after runtime
    run	     50000
Step Temp gb_t TotEng Press
0    34.431018            0   -164.09392    1.6944427
Averages over the last 51 of 101 rows, steps 25000 to 50000:
Temp gb_t TotEng Press
35.0952 35.0974 -164.093 -15.8353
Loop time of 135.378 on 24 procs for 50000 steps with 2112 atoms

Pair  time (%) = 48.9251 (36.1397)
Neigh time (%) = 0.0668585 (0.0493866)
Comm  time (%) = 35.5457 (26.2566)
Outpt time (%) = 0.043317 (0.0319971)
Other time (%) = 50.7968 (37.5223)

    next   i
    jump   in.sinusoidal loop
variable   i loop 50
    variable n equal 2000000+21*10000
    clear
    read_restart ICEns.2210000.file
  orthogonal box = (0.05325 0 0) to (175.778 21.3 21.3)
  2112 atoms

    reset_timestep 0

    # Perform NVE simulation
    fix 200 all nve

    # compute temperature and heat flux for all bins by averaging over
    # 'nfreq = nev*nrep' data and store in 'tempFlux.*.ensemble', where '*'
    # represents the ensemble number

    compute 1 all temp

    compute myPE all pe/atom
    compute myStress all stress/atom NULL virial
    compute 5 all temp/heat/flux/layer myPE myStress 11

    # If both temperature and heat current recorded (uncomment the following two lines)
    fix 16 all binAve/time 5 100 500 11 2 c_5 ave one file tempCurrent.$i.ensemble mode vector            title2 "# Bin  Temperature       Heat-current" title3 "#------------------------------------"
    fix 16 all binAve/time 5 100 500 11 2 c_5 ave one file tempCurrent.21.ensemble mode vector            title2 "# Bin  Temperature       Heat-current" title3 "#------------------------------------"

    # If only temperature is recorded (uncomment the following two lines)

    # Just for tracking the global temperature
    fix gb_t all ave/time 5 100 500 c_1 ave running

    # run
    timestep   0.001
    thermo     500
    thermo_style  custom step temp f_gb_t etotal press

    # dump for only the first ensemble and only once after runtime
    run	     50000
Step Temp gb_t TotEng Press
0    34.485073            0   -164.43557   -37.476577
Averages over the last 51 of 101 rows, steps 25000 to 50000:
Temp gb_t TotEng Press
34.3766 34.4414 -164.436 -34.114
Loop time of 134.501 on 24 procs for 50000 steps with 2112 atoms

Pair  time (%) = 48.727 (36.2279)
Neigh time (%) = 0.0482071 (0.0358414)
Comm  time (%) = 35.045 (26.0555)
Outpt time (%) = 0.0433947 (0.0322634)
Other time (%) = 50.6377 (37.6485)

    next   i
    jump   in.sinusoidal loop
variable   i loop 50
    variable n equal 2000000+22*10000
    clear
    read_restart ICEns.2220000.file
  orthogonal box = (0.05325 0 0) to (175.778 21.3 21.3)
  2112 atoms

    reset_timestep 0

    # Perform NVE simulation
    fix 200 all nve

    # compute temperature and heat flux for all bins by averaging over
    # 'nfreq = nev*nrep' data and store in 'tempFlux.*.ensemble', where '*'
    # represents the ensemble number

    compute 1 all temp

    compute myPE all pe/atom
    compute myStress all stress/atom NULL virial
    compute 5 all temp/heat/flux/layer myPE myStress 11

    # If both temperature and heat current recorded (uncomment the following two lines)
    fix 16 all binAve/time 5 100 500 11 2 c_5 ave one file tempCurrent.$i.ensemble mode vector            title2 "# Bin  Temperature       Heat-current" title3 "#------------------------------------"
    fix 16 all binAve/time 5 100 500 11 2 c_5 ave one file tempCurrent.22.ensemble mode vector            title2 "# Bin  Temperature       Heat-current" title3 "#------------------------------------"

    # If only temperature is recorded (uncomment the following two lines)

    # Just for tracking the global temperature
    fix gb_t all ave/time 5 100 500 c_1 ave running

    # run
    timestep   0.001
    thermo     500
    thermo_style  custom step temp f_gb_t etotal press

    # dump for only the first ensemble and only once after runtime
    run	     50000
Step Temp gb_t TotEng Press
0    35.027705            0   -163.97191   0.08429029
Averages over the last 51 of 101 rows, steps 25000 to 50000:
Temp gb_t TotEng Press
35.3626 35.3441 -163.971 -8.69599
Loop time of 134.896 on 24 procs for 50000 steps with 2112 atoms

Pair  time (%) = 48.7676 (36.1519)
Neigh time (%) = 0.0716689 (0.0531289)
Comm  time (%) = 35.1244 (26.0381)
Outpt time (%) = 0.0432368 (0.0320519)
Other time (%) = 50.8893 (37.7248)

    next   i
    jump   in.sinusoidal loop
variable   i loop 50
    variable n equal 2000000+23*10000
    clear
    read_restart ICEns.2230000.file
  orthogonal box = (0.05325 0 0) to (175.778 21.3 21.3)
  2112 atoms

    reset_timestep 0

    # Perform NVE simulation
    fix 200 all nve

    # compute temperature and heat flux for all bins by averaging over
    # 'nfreq = nev*nrep' data and store in 'tempFlux.*.ensemble', where '*'
    # represents the ensemble number

    compute 1 all temp

    compute myPE all pe/atom
    compute myStress all stress/atom NULL virial
    compute 5 all temp/heat/flux/layer myPE myStress 11

    # If both temperature and heat current recorded (uncomment the following two lines)
    fix 16 all binAve/time 5 100 500 11 2 c_5 ave one file tempCurrent.$i.ensemble mode vector            title2 "# Bin  Temperature       Heat-current" title3 "#------------------------------------"
    fix 16 all binAve/time 5 100 500 11 2 c_5 ave one file tempCurrent.23.ensemble mode vector            title2 "# Bin  Temperature       Heat-current" title3 "#------------------------------------"

    # If only temperature is recorded (uncomment the following two lines)

    # Just for tracking the global temperature
    fix gb_t all ave/time 5 100 500 c_1 ave running

    # run
    timestep   0.001
    thermo     500
    thermo_style  custom step temp f_gb_t etotal press

    # dump for only the first ensemble and only once after runtime
    run	     50000
Step Temp gb_t TotEng Press
0    35.297423            0    -163.5399    39.880927
Averages over the last 51 of 101 rows, steps 25000 to 50000:
Temp gb_t TotEng Press
36.1888 36.1646 -163.539 16.0746
Loop time of 135.265 on 24 procs for 50000 steps with 2112 atoms

Pair  time (%) = 48.941 (36.1816)
Neigh time (%) = 0.0753454 (0.0557021)
Comm  time (%) = 35.3128 (26.1064)
Outpt time (%) = 0.0435367 (0.0321862)
Other time (%) = 50.8923 (37.6242)

    next   i
    jump   in.sinusoidal loop
variable   i loop 50
    variable n equal 2000000+24*10000
    clear
    read_restart ICEns.2240000.file
  orthogonal box = (0.05325 0 0) to (175.778 21.3 21.3)
  2112 atoms

    reset_timestep 0

    # Perform NVE simulation
    fix 200 all nve

    # compute temperature and heat flux for all bins by averaging over
    # 'nfreq = nev*nrep' data and store in 'tempFlux.*.ensemble', where '*'
    # represents the ensemble number

    compute 1 all temp

    compute myPE all pe/atom
    compute myStress all stress/atom NULL virial
    compute 5 all temp/heat/flux/layer myPE myStress 11

    # If both temperature and heat current recorded (uncomment the following two lines)
    fix 16 all binAve/time 5 100 500 11 2 c_5 ave one file tempCurrent.$i.ensemble mode vector            title2 "# Bin  Temperature       Heat-current" title3 "#------------------------------------"
    fix 16 all binAve/time 5 100 500 11 2 c_5 ave one file tempCurrent.24.ensemble mode vector            title2 "# Bin  Temperature       Heat-current" title3 "#------------------------------------"

    # If only temperature is recorded (uncomment the following two lines)

    # Just for tracking the global temperature
    fix gb_t all ave/time 5 100 500 c_1 ave running

    # run
    timestep   0.001
    thermo     500
    thermo_style  custom step temp f_gb_t etotal press

    # dump for only the first ensemble and only once after runtime
    run	     50000
Step Temp gb_t TotEng Press
0    34.939439            0   -163.94111    5.8876036
Averages over the last 51 of 101 rows, steps 25000 to 50000:
Temp gb_t TotEng Press
35.3963 35.4019 -163.941 -6.74944
Loop time of 134.957 on 24 procs for 50000 steps with 2112 atoms

Pair  time (%) = 48.838 (36.1878)
Neigh time (%) = 0.0821336 (0.060859)
Comm  time (%) = 35.58 (26.3639)
Outpt time (%) = 0.043118 (0.0319494)
Other time (%) = 50.4138 (37.3555)

    next   i
    jump   in.sinusoidal loop
variable   i loop 50
    variable n equal 2000000+25*10000
    clear
    read_restart ICEns.2250000.file
  orthogonal box = (0.05325 0 0) to (175.778 21.3 21.3)
  2112 atoms

    reset_timestep 0

    # Perform NVE simulation
    fix 200 all nve

    # compute temperature and heat flux for all bins by averaging over
    # 'nfreq = nev*nrep' data and store in 'tempFlux.*.ensemble', where '*'
    # represents the ensemble number

    compute 1 all temp

    compute myPE all pe/atom
    compute myStress all stress/atom NULL virial
    compute 5 all temp/heat/flux/layer myPE myStress 11

    # If both temperature and heat current recorded (uncomment the following two lines)
    fix 16 all binAve/time 5 100 500 11 2 c_5 ave one file tempCurrent.$i.ensemble mode vector            title2 "# Bin  Temperature       Heat-current" title3 "#------------------------------------"
    fix 16 all binAve/time 5 100 500 11 2 c_5 ave one file tempCurrent.25.ensemble mode vector            title2 "# Bin  Temperature       Heat-current" title3 "#------------------------------------"

    # If only temperature is recorded (uncomment the following two lines)

    # Just for tracking the global temperature
    fix gb_t all ave/time 5 100 500 c_1 ave running

    # run
    timestep   0.001
    thermo     500
    thermo_style  custom step temp f_gb_t etotal press

    # dump for only the first ensemble and only once after runtime
    run	     50000
Step Temp gb_t TotEng Press
0    35.533762            0   -163.98433   -15.906845
Averages over the last 51 of 101 rows, steps 25000 to 50000:
Temp gb_t TotEng Press
35.273 35.3121 -163.984 -8.48459
Loop time of 135.631 on 24 procs for 50000 steps with 2112 atoms

Pair  time (%) = 48.8961 (36.0509)
Neigh time (%) = 0.0723561 (0.0533479)
Comm  time (%) = 35.823 (26.4122)
Outpt time (%) = 0.0434714 (0.0320513)
Other time (%) = 50.7957 (37.4515)

    next   i
    jump   in.sinusoidal loop
variable   i loop 50
    variable n equal 2000000+26*10000
    clear
    read_restart ICEns.2260000.file
  orthogonal box = (0.05325 0 0) to (175.778 21.3 21.3)
  2112 atoms

    reset_timestep 0

    # Perform NVE simulation
    fix 200 all nve

    # compute temperature and heat flux for all bins by averaging over
    # 'nfreq = nev*nrep' data and store in 'tempFlux.*.ensemble', where '*'
    # represents the ensemble number

    compute 1 all temp

    compute myPE all pe/atom
    compute myStress all stress/atom NULL virial
    compute 5 all temp/heat/flux/layer myPE myStress 11

    # If both temperature and heat current recorded (uncomment the following two lines)
    fix 16 all binAve/time 5 100 500 11 2 c_5 ave one file tempCurrent.$i.ensemble mode vector            title2 "# Bin  Temperature       Heat-current" title3 "#------------------------------------"
    fix 16 all binAve/time 5 100 500 11 2 c_5 ave one file tempCurrent.26.ensemble mode vector            title2 "# Bin  Temperature       Heat-current" title3 "#------------------------------------"

    # If only temperature is recorded (uncomment the following two lines)

    # Just for tracking the global temperature
    fix gb_t all ave/time 5 100 500 c_1 ave running

    # run
    timestep   0.001
    thermo     500
    thermo_style  custom step temp f_gb_t etotal press

    # dump for only the first ensemble and only once after runtime
    run	     50000
Step Temp gb_t TotEng Press
0     34.77387            0   -164.23777   -22.533803
Averages over the last 51 of 101 rows, steps 25000 to 50000:
Temp gb_t TotEng Press
34.7093 34.8236 -164.238 -21.8288
Loop time of 135.694 on 24 procs for 50000 steps with 2112 atoms

Pair  time (%) = 48.9383 (36.0652)
Neigh time (%) = 0.0642487 (0.0473482)
Comm  time (%) = 35.7846 (26.3715)
Outpt time (%) = 0.0437263 (0.0322242)
Other time (%) = 50.8632 (37.4837)

    next   i
    jump   in.sinusoidal loop
variable   i loop 50
    variable n equal 2000000+27*10000
    clear
    read_restart ICEns.2270000.file
  orthogonal box = (0.05325 0 0) to (175.778 21.3 21.3)
  2112 atoms

    reset_timestep 0

    # Perform NVE simulation
    fix 200 all nve

    # compute temperature and heat flux for all bins by averaging over
    # 'nfreq = nev*nrep' data and store in 'tempFlux.*.ensemble', where '*'
    # represents the ensemble number

    compute 1 all temp

    compute myPE all pe/atom
    compute myStress all stress/atom NULL virial
    compute 5 all temp/heat/flux/layer myPE myStress 11

    # If both temperature and heat current recorded (uncomment the following two lines)
    fix 16 all binAve/time 5 100 500 11 2 c_5 ave one file tempCurrent.$i.ensemble mode vector            title2 "# Bin  Temperature       Heat-current" title3 "#------------------------------------"
    fix 16 all binAve/time 5 100 500 11 2 c_5 ave one file tempCurrent.27.ensemble mode vector            title2 "# Bin  Temperature       Heat-current" title3 "#------------------------------------"

    # If only temperature is recorded (uncomment the following two lines)

    # Just for tracking the global temperature
    fix gb_t all ave/time 5 100 500 c_1 ave running

    # run
    timestep   0.001
    thermo     500
    thermo_style  custom step temp f_gb_t etotal press

    # dump for only the first ensemble and only once after runtime
    run	     50000
Step Temp gb_t TotEng Press
0    35.030492            0   -163.64628    35.662876
Averages over the last 51 of 101 rows, steps 25000 to 50000:
Temp gb_t TotEng Press
35.9838 35.9556 -163.646 9.60944
Loop time of 135.051 on 24 procs for 50000 steps with 2112 atoms

Pair  time (%) = 48.7711 (36.113)
Neigh time (%) = 0.0850581 (0.0629821)
Comm  time (%) = 35.336 (26.1649)
Outpt time (%) = 0.043497 (0.0322078)
Other time (%) = 50.8156 (37.6269)

    next   i
    jump   in.sinusoidal loop
variable   i loop 50
    variable n equal 2000000+28*10000
    clear
    read_restart ICEns.2280000.file
  orthogonal box = (0.05325 0 0) to (175.778 21.3 21.3)
  2112 atoms

    reset_timestep 0

    # Perform NVE simulation
    fix 200 all nve

    # compute temperature and heat flux for all bins by averaging over
    # 'nfreq = nev*nrep' data and store in 'tempFlux.*.ensemble', where '*'
    # represents the ensemble number

    compute 1 all temp

    compute myPE all pe/atom
    compute myStress all stress/atom NULL virial
    compute 5 all temp/heat/flux/layer myPE myStress 11

    # If both temperature and heat current recorded (uncomment the following two lines)
    fix 16 all binAve/time 5 100 500 11 2 c_5 ave one file tempCurrent.$i.ensemble mode vector            title2 "# Bin  Temperature       Heat-current" title3 "#------------------------------------"
    fix 16 all binAve/time 5 100 500 11 2 c_5 ave one file tempCurrent.28.ensemble mode vector            title2 "# Bin  Temperature       Heat-current" title3 "#------------------------------------"

    # If only temperature is recorded (uncomment the following two lines)

    # Just for tracking the global temperature
    fix gb_t all ave/time 5 100 500 c_1 ave running

    # run
    timestep   0.001
    thermo     500
    thermo_style  custom step temp f_gb_t etotal press

    # dump for only the first ensemble and only once after runtime
    run	     50000
Step Temp gb_t TotEng Press
0    35.387519            0   -163.98352   -11.909612
Averages over the last 51 of 101 rows, steps 25000 to 50000:
Temp gb_t TotEng Press
35.3198 35.3241 -163.984 -9.66451
Loop time of 135.334 on 24 procs for 50000 steps with 2112 atoms

Pair  time (%) = 48.7887 (36.0505)
Neigh time (%) = 0.0827802 (0.0611672)
Comm  time (%) = 35.4423 (26.1887)
Outpt time (%) = 0.0434077 (0.0320744)
Other time (%) = 50.9772 (37.6676)

    next   i
    jump   in.sinusoidal loop
variable   i loop 50
    variable n equal 2000000+29*10000
    clear
    read_restart ICEns.2290000.file
  orthogonal box = (0.05325 0 0) to (175.778 21.3 21.3)
  2112 atoms

    reset_timestep 0

    # Perform NVE simulation
    fix 200 all nve

    # compute temperature and heat flux for all bins by averaging over
    # 'nfreq = nev*nrep' data and store in 'tempFlux.*.ensemble', where '*'
    # represents the ensemble number

    compute 1 all temp

    compute myPE all pe/atom
    compute myStress all stress/atom NULL virial
    compute 5 all temp/heat/flux/layer myPE myStress 11

    # If both temperature and heat current recorded (uncomment the following two lines)
    fix 16 all binAve/time 5 100 500 11 2 c_5 ave one file tempCurrent.$i.ensemble mode vector            title2 "# Bin  Temperature       Heat-current" title3 "#------------------------------------"
    fix 16 all binAve/time 5 100 500 11 2 c_5 ave one file tempCurrent.29.ensemble mode vector            title2 "# Bin  Temperature       Heat-current" title3 "#------------------------------------"

    # If only temperature is recorded (uncomment the following two lines)

    # Just for tracking the global temperature
    fix gb_t all ave/time 5 100 500 c_1 ave running

    # run
    timestep   0.001
    thermo     500
    thermo_style  custom step temp f_gb_t etotal press

    # dump for only the first ensemble and only once after runtime
    run	     50000
Step Temp gb_t TotEng Press
0    35.173058            0   -164.18015   -23.571624
Averages over the last 51 of 101 rows, steps 25000 to 50000:
Temp gb_t TotEng Press
34.9599 34.9391 -164.18 -21.8131
Loop time of 134.723 on 24 procs for 50000 steps with 2112 atoms

Pair  time (%) = 48.8015 (36.2236)
Neigh time (%) = 0.0528202 (0.0392065)
Comm  time (%) = 35.1059 (26.0578)
Outpt time (%) = 0.0434608 (0.0322593)
Other time (%) = 50.7195 (37.6472)

    next   i
    jump   in.sinusoidal loop
variable   i loop 50
    variable n equal 2000000+30*10000
    clear
    read_restart ICEns.2300000.file
  orthogonal box = (0.05325 0 0) to (175.778 21.3 21.3)
  2112 atoms

    reset_timestep 0

    # Perform NVE simulation
    fix 200 all nve

    # compute temperature and heat flux for all bins by averaging over
    # 'nfreq = nev*nrep' data and store in 'tempFlux.*.ensemble', where '*'
    # represents the ensemble number

    compute 1 all temp

    compute myPE all pe/atom
    compute myStress all stress/atom NULL virial
    compute 5 all temp/heat/flux/layer myPE myStress 11

    # If both temperature and heat current recorded (uncomment the following two lines)
    fix 16 all binAve/time 5 100 500 11 2 c_5 ave one file tempCurrent.$i.ensemble mode vector            title2 "# Bin  Temperature       Heat-current" title3 "#------------------------------------"
    fix 16 all binAve/time 5 100 500 11 2 c_5 ave one file tempCurrent.30.ensemble mode vector            title2 "# Bin  Temperature       Heat-current" title3 "#------------------------------------"

    # If only temperature is recorded (uncomment the following two lines)

    # Just for tracking the global temperature
    fix gb_t all ave/time 5 100 500 c_1 ave running

    # run
    timestep   0.001
    thermo     500
    thermo_style  custom step temp f_gb_t etotal press

    # dump for only the first ensemble and only once after runtime
    run	     50000
Step Temp gb_t TotEng Press
0    34.991473            0   -164.19975   -25.471646
Averages over the last 51 of 101 rows, steps 25000 to 50000:
Temp gb_t TotEng Press
34.8307 34.8951 -164.2 -20.6624
Loop time of 134.831 on 24 procs for 50000 steps with 2112 atoms

Pair  time (%) = 48.8156 (36.205)
Neigh time (%) = 0.0728106 (0.0540014)
Comm  time (%) = 35.2089 (26.1134)
Outpt time (%) = 0.0432474 (0.0320753)
Other time (%) = 50.6904 (37.5955)

    next   i
    jump   in.sinusoidal loop
variable   i loop 50
    variable n equal 2000000+31*10000
    clear
    read_restart ICEns.2310000.file
  orthogonal box = (0.05325 0 0) to (175.778 21.3 21.3)
  2112 atoms

    reset_timestep 0

    # Perform NVE simulation
    fix 200 all nve

    # compute temperature and heat flux for all bins by averaging over
    # 'nfreq = nev*nrep' data and store in 'tempFlux.*.ensemble', where '*'
    # represents the ensemble number

    compute 1 all temp

    compute myPE all pe/atom
    compute myStress all stress/atom NULL virial
    compute 5 all temp/heat/flux/layer myPE myStress 11

    # If both temperature and heat current recorded (uncomment the following two lines)
    fix 16 all binAve/time 5 100 500 11 2 c_5 ave one file tempCurrent.$i.ensemble mode vector            title2 "# Bin  Temperature       Heat-current" title3 "#------------------------------------"
    fix 16 all binAve/time 5 100 500 11 2 c_5 ave one file tempCurrent.31.ensemble mode vector            title2 "# Bin  Temperature       Heat-current" title3 "#------------------------------------"

    # If only temperature is recorded (uncomment the following two lines)

    # Just for tracking the global temperature
    fix gb_t all ave/time 5 100 500 c_1 ave running

    # run
    timestep   0.001
    thermo     500
    thermo_style  custom step temp f_gb_t etotal press

    # dump for only the first ensemble and only once after runtime
    run	     50000
Step Temp gb_t TotEng Press
0    35.530679            0   -164.01222   -17.128792
Averages over the last 51 of 101 rows, steps 25000 to 50000:
Temp gb_t TotEng Press
35.2599 35.2705 -164.013 -11.0638
Loop time of 135.166 on 24 procs for 50000 steps with 2112 atoms

Pair  time (%) = 48.9094 (36.1847)
Neigh time (%) = 0.0845238 (0.0625334)
Comm  time (%) = 35.2562 (26.0837)
Outpt time (%) = 0.0433097 (0.0320419)
Other time (%) = 50.8723 (37.637)

    next   i
    jump   in.sinusoidal loop
variable   i loop 50
    variable n equal 2000000+32*10000
    clear
    read_restart ICEns.2320000.file
  orthogonal box = (0.05325 0 0) to (175.778 21.3 21.3)
  2112 atoms

    reset_timestep 0

    # Perform NVE simulation
    fix 200 all nve

    # compute temperature and heat flux for all bins by averaging over
    # 'nfreq = nev*nrep' data and store in 'tempFlux.*.ensemble', where '*'
    # represents the ensemble number

    compute 1 all temp

    compute myPE all pe/atom
    compute myStress all stress/atom NULL virial
    compute 5 all temp/heat/flux/layer myPE myStress 11

    # If both temperature and heat current recorded (uncomment the following two lines)
    fix 16 all binAve/time 5 100 500 11 2 c_5 ave one file tempCurrent.$i.ensemble mode vector            title2 "# Bin  Temperature       Heat-current" title3 "#------------------------------------"
    fix 16 all binAve/time 5 100 500 11 2 c_5 ave one file tempCurrent.32.ensemble mode vector            title2 "# Bin  Temperature       Heat-current" title3 "#------------------------------------"

    # If only temperature is recorded (uncomment the following two lines)

    # Just for tracking the global temperature
    fix gb_t all ave/time 5 100 500 c_1 ave running

    # run
    timestep   0.001
    thermo     500
    thermo_style  custom step temp f_gb_t etotal press

    # dump for only the first ensemble and only once after runtime
    run	     50000
Step Temp gb_t TotEng Press
0     35.14093            0   -164.05305   -12.318118
Averages over the last 51 of 101 rows, steps 25000 to 50000:
Temp gb_t TotEng Press
35.2404 35.185 -164.053 -15.2602
Loop time of 135.347 on 24 procs for 50000 steps with 2112 atoms

Pair  time (%) = 48.9119 (36.1383)
Neigh time (%) = 0.0649947 (0.0480209)
Comm  time (%) = 35.329 (26.1026)
Outpt time (%) = 0.0437175 (0.0323004)
Other time (%) = 50.997 (37.6788)

    next   i
    jump   in.sinusoidal loop
variable   i loop 50
    variable n equal 2000000+33*10000
    clear
    read_restart ICEns.2330000.file
  orthogonal box = (0.05325 0 0) to (175.778 21.3 21.3)
  2112 atoms

    reset_timestep 0

    # Perform NVE simulation
    fix 200 all nve

    # compute temperature and heat flux for all bins by averaging over
    # 'nfreq = nev*nrep' data and store in 'tempFlux.*.ensemble', where '*'
    # represents the ensemble number

    compute 1 all temp

    compute myPE all pe/atom
    compute myStress all stress/atom NULL virial
    compute 5 all temp/heat/flux/layer myPE myStress 11

    # If both temperature and heat current recorded (uncomment the following two lines)
    fix 16 all binAve/time 5 100 500 11 2 c_5 ave one file tempCurrent.$i.ensemble mode vector            title2 "# Bin  Temperature       Heat-current" title3 "#------------------------------------"
    fix 16 all binAve/time 5 100 500 11 2 c_5 ave one file tempCurrent.33.ensemble mode vector            title2 "# Bin  Temperature       Heat-current" title3 "#------------------------------------"

    # If only temperature is recorded (uncomment the following two lines)

    # Just for tracking the global temperature
    fix gb_t all ave/time 5 100 500 c_1 ave running

    # run
    timestep   0.001
    thermo     500
    thermo_style  custom step temp f_gb_t etotal press

    # dump for only the first ensemble and only once after runtime
    run	     50000
Step Temp gb_t TotEng Press
0    35.057137            0   -164.08013   -13.975981
Averages over the last 51 of 101 rows, steps 25000 to 50000:
Temp gb_t TotEng Press
35.0762 35.1428 -164.08 -14.3594
Loop time of 134.301 on 24 procs for 50000 steps with 2112 atoms

Pair  time (%) = 48.7886 (36.3277)
Neigh time (%) = 0.0616607 (0.0459122)
Comm  time (%) = 34.6539 (25.8031)
Outpt time (%) = 0.0457218 (0.0340442)
Other time (%) = 50.7514 (37.7892)

    next   i
    jump   in.sinusoidal loop
variable   i loop 50
    variable n equal 2000000+34*10000
    clear
    read_restart ICEns.2340000.file
  orthogonal box = (0.05325 0 0) to (175.778 21.3 21.3)
  2112 atoms

    reset_timestep 0

    # Perform NVE simulation
    fix 200 all nve

    # compute temperature and heat flux for all bins by averaging over
    # 'nfreq = nev*nrep' data and store in 'tempFlux.*.ensemble', where '*'
    # represents the ensemble number

    compute 1 all temp

    compute myPE all pe/atom
    compute myStress all stress/atom NULL virial
    compute 5 all temp/heat/flux/layer myPE myStress 11

    # If both temperature and heat current recorded (uncomment the following two lines)
    fix 16 all binAve/time 5 100 500 11 2 c_5 ave one file tempCurrent.$i.ensemble mode vector            title2 "# Bin  Temperature       Heat-current" title3 "#------------------------------------"
    fix 16 all binAve/time 5 100 500 11 2 c_5 ave one file tempCurrent.34.ensemble mode vector            title2 "# Bin  Temperature       Heat-current" title3 "#------------------------------------"

    # If only temperature is recorded (uncomment the following two lines)

    # Just for tracking the global temperature
    fix gb_t all ave/time 5 100 500 c_1 ave running

    # run
    timestep   0.001
    thermo     500
    thermo_style  custom step temp f_gb_t etotal press

    # dump for only the first ensemble and only once after runtime
    run	     50000
Step Temp gb_t TotEng Press
0    35.133097            0   -164.22377   -29.001676
Averages over the last 51 of 101 rows, steps 25000 to 50000:
Temp gb_t TotEng Press
34.831 34.8604 -164.224 -22.7474
Loop time of 135.244 on 24 procs for 50000 steps with 2112 atoms

Pair  time (%) = 48.9146 (36.1677)
Neigh time (%) = 0.056419 (0.0417165)
Comm  time (%) = 35.3436 (26.1332)
Outpt time (%) = 0.0436388 (0.0322668)
Other time (%) = 50.8857 (37.6252)

    next   i
    jump   in.sinusoidal loop
variable   i loop 50
    variable n equal 2000000+35*10000
    clear
    read_restart ICEns.2350000.file
  orthogonal box = (0.05325 0 0) to (175.778 21.3 21.3)
  2112 atoms

    reset_timestep 0

    # Perform NVE simulation
    fix 200 all nve

    # compute temperature and heat flux for all bins by averaging over
    # 'nfreq = nev*nrep' data and store in 'tempFlux.*.ensemble', where '*'
    # represents the ensemble number

    compute 1 all temp

    compute myPE all pe/atom
    compute myStress all stress/atom NULL virial
    compute 5 all temp/heat/flux/layer myPE myStress 11

    # If both temperature and heat current recorded (uncomment the following two lines)
    fix 16 all binAve/time 5 100 500 11 2 c_5 ave one file tempCurrent.$i.ensemble mode vector            title2 "# Bin  Temperature       Heat-current" title3 "#------------------------------------"
    fix 16 all binAve/time 5 100 500 11 2 c_5 ave one file tempCurrent.35.ensemble mode vector            title2 "# Bin  Temperature       Heat-current" title3 "#------------------------------------"

    # If only temperature is recorded (uncomment the following two lines)

    # Just for tracking the global temperature
    fix gb_t all ave/time 5 100 500 c_1 ave running

    # run
    timestep   0.001
    thermo     500
    thermo_style  custom step temp f_gb_t etotal press

    # dump for only the first ensemble and only once after runtime
    run	     50000
Step Temp gb_t TotEng Press
0    35.919712            0   -163.89487    -17.26066
Averages over the last 51 of 101 rows, steps 25000 to 50000:
Temp gb_t TotEng Press
35.492 35.4945 -163.896 -4.1977
Loop time of 135.848 on 24 procs for 50000 steps with 2112 atoms

Pair  time (%) = 49.053 (36.1087)
Neigh time (%) = 0.06817 (0.0501811)
Comm  time (%) = 35.6978 (26.2777)
Outpt time (%) = 0.0433921 (0.0319417)
Other time (%) = 50.9857 (37.5314)

    next   i
    jump   in.sinusoidal loop
variable   i loop 50
    variable n equal 2000000+36*10000
    clear
    read_restart ICEns.2360000.file
  orthogonal box = (0.05325 0 0) to (175.778 21.3 21.3)
  2112 atoms

    reset_timestep 0

    # Perform NVE simulation
    fix 200 all nve

    # compute temperature and heat flux for all bins by averaging over
    # 'nfreq = nev*nrep' data and store in 'tempFlux.*.ensemble', where '*'
    # represents the ensemble number

    compute 1 all temp

    compute myPE all pe/atom
    compute myStress all stress/atom NULL virial
    compute 5 all temp/heat/flux/layer myPE myStress 11

    # If both temperature and heat current recorded (uncomment the following two lines)
    fix 16 all binAve/time 5 100 500 11 2 c_5 ave one file tempCurrent.$i.ensemble mode vector            title2 "# Bin  Temperature       Heat-current" title3 "#------------------------------------"
    fix 16 all binAve/time 5 100 500 11 2 c_5 ave one file tempCurrent.36.ensemble mode vector            title2 "# Bin  Temperature       Heat-current" title3 "#------------------------------------"

    # If only temperature is recorded (uncomment the following two lines)

    # Just for tracking the global temperature
    fix gb_t all ave/time 5 100 500 c_1 ave running

    # run
    timestep   0.001
    thermo     500
    thermo_style  custom step temp f_gb_t etotal press

    # dump for only the first ensemble and only once after runtime
    run	     50000
Step Temp gb_t TotEng Press
0    35.032343            0   -163.88207    8.2749149
Averages over the last 51 of 101 rows, steps 25000 to 50000:
Temp gb_t TotEng Press
35.6302 35.5125 -163.882 -6.29044
Loop time of 134.693 on 24 procs for 50000 steps with 2112 atoms

Pair  time (%) = 48.87 (36.2825)
Neigh time (%) = 0.0696899 (0.0517398)
Comm  time (%) = 34.8698 (25.8883)
Outpt time (%) = 0.0433701 (0.0321992)
Other time (%) = 50.8401 (37.7452)

    next   i
    jump   in.sinusoidal loop
variable   i loop 50
    variable n equal 2000000+37*10000
    clear
    read_restart ICEns.2370000.file
  orthogonal box = (0.05325 0 0) to (175.778 21.3 21.3)
  2112 atoms

    reset_timestep 0

    # Perform NVE simulation
    fix 200 all nve

    # compute temperature and heat flux for all bins by averaging over
    # 'nfreq = nev*nrep' data and store in 'tempFlux.*.ensemble', where '*'
    # represents the ensemble number

    compute 1 all temp

    compute myPE all pe/atom
    compute myStress all stress/atom NULL virial
    compute 5 all temp/heat/flux/layer myPE myStress 11

    # If both temperature and heat current recorded (uncomment the following two lines)
    fix 16 all binAve/time 5 100 500 11 2 c_5 ave one file tempCurrent.$i.ensemble mode vector            title2 "# Bin  Temperature       Heat-current" title3 "#------------------------------------"
    fix 16 all binAve/time 5 100 500 11 2 c_5 ave one file tempCurrent.37.ensemble mode vector            title2 "# Bin  Temperature       Heat-current" title3 "#------------------------------------"

    # If only temperature is recorded (uncomment the following two lines)

    # Just for tracking the global temperature
    fix gb_t all ave/time 5 100 500 c_1 ave running

    # run
    timestep   0.001
    thermo     500
    thermo_style  custom step temp f_gb_t etotal press

    # dump for only the first ensemble and only once after runtime
    run	     50000
Step Temp gb_t TotEng Press
0    35.966995            0   -164.12315   -41.703038
Averages over the last 51 of 101 rows, steps 25000 to 50000:
Temp gb_t TotEng Press
35.0274 35.0455 -164.124 -16.9065
Loop time of 134.891 on 24 procs for 50000 steps with 2112 atoms

Pair  time (%) = 48.8173 (36.1901)
Neigh time (%) = 0.0677065 (0.0501934)
Comm  time (%) = 35.1429 (26.0527)
Outpt time (%) = 0.0433416 (0.0321308)
Other time (%) = 50.8201 (37.6748)

    next   i
    jump   in.sinusoidal loop
variable   i loop 50
    variable n equal 2000000+38*10000
    clear
    read_restart ICEns.2380000.file
  orthogonal box = (0.05325 0 0) to (175.778 21.3 21.3)
  2112 atoms

    reset_timestep 0

    # Perform NVE simulation
    fix 200 all nve

    # compute temperature and heat flux for all bins by averaging over
    # 'nfreq = nev*nrep' data and store in 'tempFlux.*.ensemble', where '*'
    # represents the ensemble number

    compute 1 all temp

    compute myPE all pe/atom
    compute myStress all stress/atom NULL virial
    compute 5 all temp/heat/flux/layer myPE myStress 11

    # If both temperature and heat current recorded (uncomment the following two lines)
    fix 16 all binAve/time 5 100 500 11 2 c_5 ave one file tempCurrent.$i.ensemble mode vector            title2 "# Bin  Temperature       Heat-current" title3 "#------------------------------------"
    fix 16 all binAve/time 5 100 500 11 2 c_5 ave one file tempCurrent.38.ensemble mode vector            title2 "# Bin  Temperature       Heat-current" title3 "#------------------------------------"

    # If only temperature is recorded (uncomment the following two lines)

    # Just for tracking the global temperature
    fix gb_t all ave/time 5 100 500 c_1 ave running

    # run
    timestep   0.001
    thermo     500
    thermo_style  custom step temp f_gb_t etotal press

    # dump for only the first ensemble and only once after runtime
    run	     50000
Step Temp gb_t TotEng Press
0    35.480848            0    -164.0798   -24.618163
Averages over the last 51 of 101 rows, steps 25000 to 50000:
Temp gb_t TotEng Press
35.0856 35.1293 -164.081 -13.9167
Loop time of 135.199 on 24 procs for 50000 steps with 2112 atoms

Pair  time (%) = 48.8846 (36.1574)
Neigh time (%) = 0.061502 (0.0454898)
Comm  time (%) = 35.3737 (26.1641)
Outpt time (%) = 0.0436389 (0.0322775)
Other time (%) = 50.8358 (37.6007)

    next   i
    jump   in.sinusoidal loop
variable   i loop 50
    variable n equal 2000000+39*10000
    clear
    read_restart ICEns.2390000.file
  orthogonal box = (0.05325 0 0) to (175.778 21.3 21.3)
  2112 atoms

    reset_timestep 0

    # Perform NVE simulation
    fix 200 all nve

    # compute temperature and heat flux for all bins by averaging over
    # 'nfreq = nev*nrep' data and store in 'tempFlux.*.ensemble', where '*'
    # represents the ensemble number

    compute 1 all temp

    compute myPE all pe/atom
    compute myStress all stress/atom NULL virial
    compute 5 all temp/heat/flux/layer myPE myStress 11

    # If both temperature and heat current recorded (uncomment the following two lines)
    fix 16 all binAve/time 5 100 500 11 2 c_5 ave one file tempCurrent.$i.ensemble mode vector            title2 "# Bin  Temperature       Heat-current" title3 "#------------------------------------"
    fix 16 all binAve/time 5 100 500 11 2 c_5 ave one file tempCurrent.39.ensemble mode vector            title2 "# Bin  Temperature       Heat-current" title3 "#------------------------------------"

    # If only temperature is recorded (uncomment the following two lines)

    # Just for tracking the global temperature
    fix gb_t all ave/time 5 100 500 c_1 ave running

    # run
    timestep   0.001
    thermo     500
    thermo_style  custom step temp f_gb_t etotal press

    # dump for only the first ensemble and only once after runtime
    run	     50000
Loop time of 134.011 on 24 procs for 50000 steps with 2112 atoms

Pair  time (%) = 48.8029 (36.4171)
Neigh time (%) = 0.06466 (0.0482497)
Comm  time (%) = 34.4894 (25.7362)
Outpt time (%) = 0.0432935 (0.0323059)
Other time (%) = 50.6108 (37.7661)

    next   i
    jump   in.sinusoidal loop
variable   i loop 50
    variable n equal 2000000+40*10000
    clear
    read_restart ICEns.2400000.file
  orthogonal box = (0.05325 0 0) to (175.778 21.3 21.3)
  2112 atoms

    reset_timestep 0

    # Perform NVE simulation
    fix 200 all nve

    # compute temperature and heat flux for all bins by averaging over
    # 'nfreq = nev*nrep' data and store in 'tempFlux.*.ensemble', where '*'
    # represents the ensemble number

    compute 1 all temp

    compute myPE all pe/atom
    compute myStress all stress/atom NULL virial
    compute 5 all temp/heat/flux/layer myPE myStress 11

    # If both temperature and heat current recorded (uncomment the following two lines)
    fix 16 all binAve/time 5 100 500 11 2 c_5 ave one file tempCurrent.$i.ensemble mode vector            title2 "# Bin  Temperature       Heat-current" title3 "#------------------------------------"
    fix 16 all binAve/time 5 100 500 11 2 c_5 ave one file tempCurrent.40.ensemble mode vector            title2 "# Bin  Temperature       Heat-current" title3 "#------------------------------------"

    # If only temperature is recorded (uncomment the following two lines)

    # Just for tracking the global temperature
    fix gb_t all ave/time 5 100 500 c_1 ave running

    # run
    timestep   0.001
    thermo     500
    thermo_style  custom step temp f_gb_t etotal press

    # dump for only the first ensemble and only once after runtime
    run	     50000
Loop time of 135.015 on 24 procs for 50000 steps with 2112 atoms

Pair  time (%) = 48.9205 (36.2334)
Neigh time (%) = 0.0736196 (0.054527)
Comm  time (%) = 35.1456 (26.0309)
Outpt time (%) = 0.0431611 (0.0319676)
Other time (%) = 50.832 (37.6492)

    next   i
    jump   in.sinusoidal loop
variable   i loop 50
    variable n equal 2000000+41*10000
    clear
    read_restart ICEns.2410000.file
  orthogonal box = (0.05325 0 0) to (175.778 21.3 21.3)
  2112 atoms

    reset_timestep 0

    # Perform NVE simulation
    fix 200 all nve

    # compute temperature and heat flux for all bins by averaging over
    # 'nfreq = nev*nrep' data and store in 'tempFlux.*.ensemble', where '*'
    # represents the ensemble number

    compute 1 all temp

    compute myPE all pe/atom
    compute myStress all stress/atom NULL virial
    compute 5 all temp/heat/flux/layer myPE myStress 11

    # If both temperature and heat current recorded (uncomment the following two lines)
    fix 16 all binAve/time 5 100 500 11 2 c_5 ave one file tempCurrent.$i.ensemble mode vector            title2 "# Bin  Temperature       Heat-current" title3 "#------------------------------------"
    fix 16 all binAve/time 5 100 500 11 2 c_5 ave one file tempCurrent.41.ensemble mode vector            title2 "# Bin  Temperature       Heat-current" title3 "#------------------------------------"

    # If only temperature is recorded (uncomment the following two lines)

    # Just for tracking the global temperature
    fix gb_t all ave/time 5 100 500 c_1 ave running

    # run
    timestep   0.001
    thermo     500
    thermo_style  custom step temp f_gb_t etotal press

    # dump for only the first ensemble and only once after runtime
    run	     50000
Loop time of 136.149 on 24 procs for 50000 steps with 2112 atoms

Pair  time (%) = 49.2016 (36.1379)
Neigh time (%) = 0.0734499 (0.053948)
Comm  time (%) = 35.9613 (26.4131)
Outpt time (%) = 0.0436114 (0.032032)
Other time (%) = 50.8695 (37.363)

    next   i
    jump   in.sinusoidal loop
variable   i loop 50
    variable n equal 2000000+42*10000
    clear
    read_restart ICEns.2420000.file
  orthogonal box = (0.05325 0 0) to (175.778 21.3 21.3)
  2112 atoms

    reset_timestep 0

    # Perform NVE simulation
    fix 200 all nve

    # compute temperature and heat flux for all bins by averaging over
    # 'nfreq = nev*nrep' data and store in 'tempFlux.*.ensemble', where '*'
    # represents the ensemble number

    compute 1 all temp

    compute myPE all pe/atom
    compute myStress all stress/atom NULL virial
    compute 5 all temp/heat/flux/layer myPE myStress 11

    # If both temperature and heat current recorded (uncomment the following two lines)
    fix 16 all binAve/time 5 100 500 11 2 c_5 ave one file tempCurrent.$i.ensemble mode vector            title2 "# Bin  Temperature       Heat-current" title3 "#------------------------------------"
    fix 16 all binAve/time 5 100 500 11 2 c_5 ave one file tempCurrent.42.ensemble mode vector            title2 "# Bin  Temperature       Heat-current" title3 "#------------------------------------"

    # If only temperature is recorded (uncomment the following two lines)

    # Just for tracking the global temperature
    fix gb_t all ave/time 5 100 500 c_1 ave running

    # run
    timestep   0.001
    thermo     500
    thermo_style  custom step temp f_gb_t etotal press

    # dump for only the first ensemble and only once after runtime
    run	     50000
Loop time of 136.016 on 24 procs for 50000 steps with 2112 atoms

Pair  time (%) = 49.0919 (36.0928)
Neigh time (%) = 0.0735052 (0.0540416)
Comm  time (%) = 36.0058 (26.4717)
Outpt time (%) = 0.0436915 (0.0321223)
Other time (%) = 50.8011 (37.3494)

    next   i
    jump   in.sinusoidal loop
variable   i loop 50
    variable n equal 2000000+43*10000
    clear
    read_restart ICEns.2430000.file
  orthogonal box = (0.05325 0 0) to (175.778 21.3 21.3)
  2112 atoms

    reset_timestep 0

    # Perform NVE simulation
    fix 200 all nve

    # compute temperature and heat flux for all bins by averaging over
    # 'nfreq = nev*nrep' data and store in 'tempFlux.*.ensemble', where '*'
    # represents the ensemble number

    compute 1 all temp

    compute myPE all pe/atom
    compute myStress all stress/atom NULL virial
    compute 5 all temp/heat/flux/layer myPE myStress 11

    # If both temperature and heat current recorded (uncomment the following two lines)
    fix 16 all binAve/time 5 100 500 11 2 c_5 ave one file tempCurrent.$i.ensemble mode vector            title2 "# Bin  Temperature       Heat-current" title3 "#------------------------------------"
    fix 16 all binAve/time 5 100 500 11 2 c_5 ave one file tempCurrent.43.ensemble mode vector            title2 "# Bin  Temperature       Heat-current" title3 "#------------------------------------"

    # If only temperature is recorded (uncomment the following two lines)

    # Just for tracking the global temperature
    fix gb_t all ave/time 5 100 500 c_1 ave running

    # run
    timestep   0.001
    thermo     500
    thermo_style  custom step temp f_gb_t etotal press

    # dump for only the first ensemble and only once after runtime
    run	     50000
Loop time of 134.001 on 24 procs for 50000 steps with 2112 atoms

Pair  time (%) = 48.8203 (36.4329)
Neigh time (%) = 0.0632574 (0.0472067)
Comm  time (%) = 34.3548 (25.6378)
Outpt time (%) = 0.0434449 (0.0324214)
Other time (%) = 50.719 (37.8498)

    next   i
    jump   in.sinusoidal loop
variable   i loop 50
    variable n equal 2000000+44*10000
    clear
    read_restart ICEns.2440000.file
  orthogonal box = (0.05325 0 0) to (175.778 21.3 21.3)
  2112 atoms

    reset_timestep 0

    # Perform NVE simulation
    fix 200 all nve

    # compute temperature and heat flux for all bins by averaging over
    # 'nfreq = nev*nrep' data and store in 'tempFlux.*.ensemble', where '*'
    # represents the ensemble number

    compute 1 all temp

    compute myPE all pe/atom
    compute myStress all stress/atom NULL virial
    compute 5 all temp/heat/flux/layer myPE myStress 11

    # If both temperature and heat current recorded (uncomment the following two lines)
    fix 16 all binAve/time 5 100 500 11 2 c_5 ave one file tempCurrent.$i.ensemble mode vector            title2 "# Bin  Temperature       Heat-current" title3 "#------------------------------------"
    fix 16 all binAve/time 5 100 500 11 2 c_5 ave one file tempCurrent.44.ensemble mode vector            title2 "# Bin  Temperature       Heat-current" title3 "#------------------------------------"

    # If only temperature is recorded (uncomment the following two lines)

    # Just for tracking the global temperature
    fix gb_t all ave/time 5 100 500 c_1 ave running

    # run
    timestep   0.001
    thermo     500
    thermo_style  custom step temp f_gb_t etotal press

    # dump for only the first ensemble and only once after runtime
    run	     50000
Loop time of 135.229 on 24 procs for 50000 steps with 2112 atoms

Pair  time (%) = 48.9116 (36.1695)
Neigh time (%) = 0.101938 (0.0753817)
Comm  time (%) = 35.2684 (26.0805)
Outpt time (%) = 0.0437222 (0.032332)
Other time (%) = 50.9033 (37.6423)

    next   i
    jump   in.sinusoidal loop
variable   i loop 50
    variable n equal 2000000+45*10000
    clear
    read_restart ICEns.2450000.file
  orthogonal box = (0.05325 0 0) to (175.778 21.3 21.3)
  2112 atoms

    reset_timestep 0

    # Perform NVE simulation
    fix 200 all nve

    # compute temperature and heat flux for all bins by averaging over
    # 'nfreq = nev*nrep' data and store in 'tempFlux.*.ensemble', where '*'
    # represents the ensemble number

    compute 1 all temp

    compute myPE all pe/atom
    compute myStress all stress/atom NULL virial
    compute 5 all temp/heat/flux/layer myPE myStress 11

    # If both temperature and heat current recorded (uncomment the following two lines)
    fix 16 all binAve/time 5 100 500 11 2 c_5 ave one file tempCurrent.$i.ensemble mode vector            title2 "# Bin  Temperature       Heat-current" title3 "#------------------------------------"
    fix 16 all binAve/time 5 100 500 11 2 c_5 ave one file tempCurrent.45.ensemble mode vector            title2 "# Bin  Temperature       Heat-current" title3 "#------------------------------------"

    # If only temperature is recorded (uncomment the following two lines)

    # Just for tracking the global temperature
    fix gb_t all ave/time 5 100 500 c_1 ave running

    # run
    timestep   0.001
    thermo     500
    thermo_style  custom step temp f_gb_t etotal press

    # dump for only the first ensemble and only once after runtime
    run	     50000
Loop time of 135.264 on 24 procs for 50000 steps with 2112 atoms

Pair  time (%) = 48.8766 (36.1342)
Neigh time (%) = 0.0593482 (0.0438758)
Comm  time (%) = 35.498 (26.2435)
Outpt time (%) = 0.0433973 (0.0320834)
Other time (%) = 50.7866 (37.5463)

    next   i
    jump   in.sinusoidal loop
variable   i loop 50
    variable n equal 2000000+46*10000
    clear
    read_restart ICEns.2460000.file
  orthogonal box = (0.05325 0 0) to (175.778 21.3 21.3)
  2112 atoms

    reset_timestep 0

    # Perform NVE simulation
    fix 200 all nve

    # compute temperature and heat flux for all bins by averaging over
    # 'nfreq = nev*nrep' data and store in 'tempFlux.*.ensemble', where '*'
    # represents the ensemble number

    compute 1 all temp

    compute myPE all pe/atom
    compute myStress all stress/atom NULL virial
    compute 5 all temp/heat/flux/layer myPE myStress 11

    # If both temperature and heat current recorded (uncomment the following two lines)
    fix 16 all binAve/time 5 100 500 11 2 c_5 ave one file tempCurrent.$i.ensemble mode vector            title2 "# Bin  Temperature       Heat-current" title3 "#------------------------------------"
    fix 16 all binAve/time 5 100 500 11 2 c_5 ave one file tempCurrent.46.ensemble mode vector            title2 "# Bin  Temperature       Heat-current" title3 "#------------------------------------"

    # If only temperature is recorded (uncomment the following two lines)

    # Just for tracking the global temperature
    fix gb_t all ave/time 5 100 500 c_1 ave running

    # run
    timestep   0.001
    thermo     500
    thermo_style  custom step temp f_gb_t etotal press

    # dump for only the first ensemble and only once after runtime
    run	     50000
Loop time of 135.799 on 24 procs for 50000 steps with 2112 atoms

Pair  time (%) = 49.0179 (36.0959)
Neigh time (%) = 0.0705398 (0.0519442)
Comm  time (%) = 35.7058 (26.2931)
Outpt time (%) = 0.0434451 (0.0319922)
Other time (%) = 50.9614 (37.5271)

    next   i
    jump   in.sinusoidal loop
variable   i loop 50
    variable n equal 2000000+47*10000
    clear
    read_restart ICEns.2470000.file
  orthogonal box = (0.05325 0 0) to (175.778 21.3 21.3)
  2112 atoms

    reset_timestep 0

    # Perform NVE simulation
    fix 200 all nve

    # compute temperature and heat flux for all bins by averaging over
    # 'nfreq = nev*nrep' data and store in 'tempFlux.*.ensemble', where '*'
    # represents the ensemble number

    compute 1 all temp

    compute myPE all pe/atom
    compute myStress all stress/atom NULL virial
    compute 5 all temp/heat/flux/layer myPE myStress 11

    # If both temperature and heat current recorded (uncomment the following two lines)
    fix 16 all binAve/time 5 100 500 11 2 c_5 ave one file tempCurrent.$i.ensemble mode vector            title2 "# Bin  Temperature       Heat-current" title3 "#------------------------------------"
    fix 16 all binAve/time 5 100 500 11 2 c_5 ave one file tempCurrent.47.ensemble mode vector            title2 "# Bin  Temperature       Heat-current" title3 "#------------------------------------"

    # If only temperature is recorded (uncomment the following two lines)

    # Just for tracking the global temperature
    fix gb_t all ave/time 5 100 500 c_1 ave running

    # run
    timestep   0.001
    thermo     500
    thermo_style  custom step temp f_gb_t etotal press

    # dump for only the first ensemble and only once after runtime
    run	     50000
Loop time of 135.001 on 24 procs for 50000 steps with 2112 atoms

Pair  time (%) = 48.9851 (36.285)
Neigh time (%) = 0.060328 (0.0446871)
Comm  time (%) = 35.2972 (26.1459)
Outpt time (%) = 0.0435763 (0.0322786)
Other time (%) = 50.6146 (37.4921)

    next   i
    jump   in.sinusoidal loop
variable   i loop 50
    variable n equal 2000000+48*10000
    clear
    read_restart ICEns.2480000.file
  orthogonal box = (0.05325 0 0) to (175.778 21.3 21.3)
  2112 atoms

    reset_timestep 0

    # Perform NVE simulation
    fix 200 all nve

    # compute temperature and heat flux for all bins by averaging over
    # 'nfreq = nev*nrep' data and store in 'tempFlux.*.ensemble', where '*'
    # represents the ensemble number

    compute 1 all temp

    compute myPE all pe/atom
    compute myStress all stress/atom NULL virial
    compute 5 all temp/heat/flux/layer myPE myStress 11

    # If both temperature and heat current recorded (uncomment the following two lines)
    fix 16 all binAve/time 5 100 500 11 2 c_5 ave one file tempCurrent.$i.ensemble mode vector            title2 "# Bin  Temperature       Heat-current" title3 "#------------------------------------"
    fix 16 all binAve/time 5 100 500 11 2 c_5 ave one file tempCurrent.48.ensemble mode vector            title2 "# Bin  Temperature       Heat-current" title3 "#------------------------------------"

    # If only temperature is recorded (uncomment the following two lines)

    # Just for tracking the global temperature
    fix gb_t all ave/time 5 100 500 c_1 ave running

    # run
    timestep   0.001
    thermo     500
    thermo_style  custom step temp f_gb_t etotal press

    # dump for only the first ensemble and only once after runtime
    run	     50000
Loop time of 135.217 on 24 procs for 50000 steps with 2112 atoms

Pair  time (%) = 48.8881 (36.1552)
Neigh time (%) = 0.0909456 (0.0672589)
Comm  time (%) = 35.1454 (25.9918)
Outpt time (%) = 0.046003 (0.0340215)
Other time (%) = 51.0469 (37.7517)

    next   i
    jump   in.sinusoidal loop
variable   i loop 50
    variable n equal 2000000+49*10000
    clear
    read_restart ICEns.2490000.file
  orthogonal box = (0.05325 0 0) to (175.778 21.3 21.3)
  2112 atoms

    reset_timestep 0

    # Perform NVE simulation
    fix 200 all nve

    # compute temperature and heat flux for all bins by averaging over
    # 'nfreq = nev*nrep' data and store in 'tempFlux.*.ensemble', where '*'
    # represents the ensemble number

    compute 1 all temp

    compute myPE all pe/atom
    compute myStress all stress/atom NULL virial
    compute 5 all temp/heat/flux/layer myPE myStress 11

    # If both temperature and heat current recorded (uncomment the following two lines)
    fix 16 all binAve/time 5 100 500 11 2 c_5 ave one file tempCurrent.$i.ensemble mode vector            title2 "# Bin  Temperature       Heat-current" title3 "#------------------------------------"
    fix 16 all binAve/time 5 100 500 11 2 c_5 ave one file tempCurrent.49.ensemble mode vector            title2 "# Bin  Temperature       Heat-current" title3 "#------------------------------------"

    # If only temperature is recorded (uncomment the following two lines)

    # Just for tracking the global temperature
    fix gb_t all ave/time 5 100 500 c_1 ave running

    # run
    timestep   0.001
    thermo     500
    thermo_style  custom step temp f_gb_t etotal press

    # dump for only the first ensemble and only once after runtime
    run	     50000
Loop time of 134.964 on 24 procs for 50000 steps with 2112 atoms

Pair  time (%) = 48.861 (36.2028)
Neigh time (%) = 0.0798361 (0.0591534)
Comm  time (%) = 35.2129 (26.0905)
Outpt time (%) = 0.0432994 (0.032082)
Other time (%) = 50.7675 (37.6154)

    next   i
    jump   in.sinusoidal loop
variable   i loop 50
    variable n equal 2000000+50*10000
    clear
    read_restart ICEns.2500000.file
  orthogonal box = (0.05325 0 0) to (175.778 21.3 21.3)
  2112 atoms

    reset_timestep 0

    # Perform NVE simulation
    fix 200 all nve

    # compute temperature and heat flux for all bins by averaging over
    # 'nfreq = nev*nrep' data and store in 'tempFlux.*.ensemble', where '*'
    # represents the ensemble number

    compute 1 all temp

    compute myPE all pe/atom
    compute myStress all stress/atom NULL virial
    compute 5 all temp/heat/flux/layer myPE myStress 11

    # If both temperature and heat current recorded (uncomment the following two lines)
    fix 16 all binAve/time 5 100 500 11 2 c_5 ave one file tempCurrent.$i.ensemble mode vector            title2 "# Bin  Temperature       Heat-current" title3 "#------------------------------------"
    fix 16 all binAve/time 5 100 500 11 2 c_5 ave one file tempCurrent.50.ensemble mode vector            title2 "# Bin  Temperature       Heat-current" title3 "#------------------------------------"

    # If only temperature is recorded (uncomment the following two lines)

    # Just for tracking the global temperature
    fix gb_t all ave/time 5 100 500 c_1 ave running

    # run
    timestep   0.001
    thermo     500
    thermo_style  custom step temp f_gb_t etotal press

    # dump for only the first ensemble and only once after runtime
    run	     50000
Loop time of 134.602 on 24 procs for 50000 steps with 2112 atoms

Pair  time (%) = 48.7784 (36.239)
Neigh time (%) = 0.0922864 (0.0685625)
Comm  time (%) = 35.09 (26.0694)
Outpt time (%) = 0.0432349 (0.0321206)
Other time (%) = 50.5981 (37.5909)

    next   i
    jump   in.sinusoidal loop
    # ATTENTION: make sure that script file name is put here

label break
variable i delete
