LAMMPS (18 Jun 2019)
#LAMMPS Input file
# Title
clear

# ----- condition settings -----

variable    temp index 77.0 # K

variable    pres index 1.0 # 0.1 MPa (bar units)

# -----other settings -----
variable        fs    index 0.0010 # 1.0 fs
variable        ps    index 20 # 20 ps
variable        nstep equal 20/0.0010
variable        tdamp equal 0.0010*100
variable        pdamp equal 0.0010*1000

# ----- Structure settings -----
units           metal
atom_style      atomic
dimension       3
boundary        p p p
read_data       data_5x4x4.in
  orthogonal box = (-9.00663 -7.20531 -7.20531) to (9.00663 7.20531 7.20531)
  reading atoms ...
  320 atoms
  reading velocities ...
  320 velocities
replicate       1 1 1
  orthogonal box = (-9.00663 -7.20531 -7.20531) to (9.00663 7.20531 7.20531)
  320 atoms
  replicate CPU = 0.00598216 secs
timestep        0.0010

# ----- Potential settings (MEAM)-----
# -----HEA (Co-Ni-Cr-Fe-Mn)
pair_style      meam/c
pair_coeff      * * ./meam/CoNiCrFeMn.HEA.library.meam Co Ni Cr Fe Mn ./meam/CoNiCrFeMn.HEA.meam Co Ni Cr Fe Mn
# -----(Al-Si-Mg-Cu-Fe)
#pair_style      meam/c
#pair_coeff      * * ./meam/Jelinek_2012_meamf AlS SiS MgS CuS FeS ./meam/Jelinek_2012_meam.alsimgcufe AlS SiS MgS CuS

# ----- Potential settings (EAM)-----
# -----(Ag-Au-Cu-Ni-Pd-Pt)
#pair_style      eam
#pair_coeff      1 * ./eam/DYNAMO/cuu6.txt
#pair_coeff      2 * ./eam/DYNAMO/agu6.txt
#pair_coeff      3 * ./eam/DYNAMO/auu6.txt
#pair_coeff      4 * ./eam/DYNAMO/niu6.txt
#pair_coeff      5 * ./eam/DYNAMO/ptu6.txt

# ----- Potential settings (EIM)-----
#pair_style      eim
#pair_coeff      * * Li Na K Rb Cs F Cl Br Id ./eim/BrClCsFIKLiNaRb.ffield.eim F K Li Na Rb

# ----- Relax calculation (0 K) -----
thermo_style    custom step etotal temp lx vol press pxx pyy pxy
thermo          10
fix             f1 all box/relax iso 0.0
minimize        1.0e-10 0.0 1000 100000
  update every 1 steps, delay 0 steps, check yes
Step TotEng Temp Lx Volume Press Pxx Pyy Pxy
0   -1280.3195          298    18.013268    3740.7399    16958.516    19042.093    15007.813    522.77344
Averages over the last 51 of 101 rows, steps 500 to 1000:
TotEng Temp Lx Volume Press Pxx Pyy Pxy
-1289.6 298 18.0142 3741.31 3466.3 4533.49 2406.72 245.303
Loop time of 8.6231 on 1 procs for 1000 steps with 320 atoms

Minimization stats:
  Stopping criterion = max iterations
  Energy initial, next-to-last, final =
  Force two-norm initial, final = 95.484 5.42658
  Force max component initial, final = 94.2081 0.511119
  Final line search alpha, max atom move = 2.74347e-05 1.40224e-05
  Iterations, force evaluations = 1000 1000

unfix           f1

# ----- Output setting -----
dump            d1 all cfg 100 cfg/run.*.cfg mass type xs ys zs id type
dump_modify     d1 element Co Ni Cr Fe Mn
#dump_modify     d1 element Al Si Mg Cu   # Al-Si-Mg-Cu-Fe

# ----- Check equilibriation setting -----
variable        energy equal etotal
variable        temperature equal temp
fix             fout1 all ave/time 1 100 100 v_energy v_temperature file out_energy.txt

# ----- Equilibriation -----
velocity        all create 10.0 123456
fix             f1 all npt temp 10.0 77.0 0.1 iso 0.0 1.0 1
run             20000
Step TotEng Temp Lx Volume Press Pxx Pyy Pxy
1000   -1302.5754           10    18.009665    3738.4959    144.48981    1349.7999   -1087.1144      372.301
Averages over the last 1001 of 2001 rows, steps 11000 to 21000:
TotEng Temp Lx Volume Press Pxx Pyy Pxy
-1301.4 59.5843 18.0109 3739.26 1.3832 1786.63 -1144.06 314.498
Loop time of 188.47 on 1 procs for 20000 steps with 320 atoms

unfix           f1

# ----- Calculation -----
# fix            f1 all deform 1 x erate 0.001 remap x
fix             f1 all nvt temp 77.0 77.0 0.1
run             20000
Step TotEng Temp Lx Volume Press Pxx Pyy Pxy
21000   -1299.9637    79.759076    18.010439    3738.9776    1095.6423    2982.7711   -861.54591    182.03027
Averages over the last 1001 of 2001 rows, steps 31000 to 41000:
TotEng Temp Lx Volume Press Pxx Pyy Pxy
-1300.04 76.208 18.0104 3738.98 1190.44 2816.2 1.23746 298.523
Loop time of 182.137 on 1 procs for 20000 steps with 320 atoms

unfix           f1

# ----- Radial Distribution Function -----
#comm_modify     cutoff 14
compute         distribution all rdf 240
fix             f1 all ave/time 1 1000 3000 c_distribution[*] file out_rdf.txt mode vector

# ----- Mean Square Displacement -----
group           Co type 1
64 atoms in group Co
compute         Comsd Co msd
fix             f2 all ave/time 1 1 5 c_Comsd[*] file out_Co_msd.txt
# -----
group           Ni type 2
64 atoms in group Ni
compute         Nimsd Ni msd
fix             f3 all ave/time 1 1 5 c_Nimsd[*] file out_Ni_msd.txt
# -----
group           Cr type 3
64 atoms in group Cr
compute         Crmsd Cr msd
fix             f4 all ave/time 1 1 5 c_Crmsd[*] file out_Cr_msd.txt
# -----
group           Fe type 4
64 atoms in group Fe
compute         Femsd Fe msd
fix             f5 all ave/time 1 1 5 c_Femsd[*] file out_Fe_msd.txt
# -----
group           Mn type 5
64 atoms in group Mn
compute         Mnmsd Mn msd
fix             f6 all ave/time 1 1 5 c_Mnmsd[*] file out_Mn_msd.txt
# -----
compute         allmsd all msd
fix             f7 all ave/time 1 1 5 c_allmsd[*] file out_all_msd.txt

fix             f8 all nvt temp 77.0 77.0 0.1
run             3000
  update every 1 steps, delay 10 steps, check yes
Step TotEng Temp Lx Volume Press Pxx Pyy Pxy
41000   -1299.9326      76.1049    18.010439    3738.9776    600.10727    2518.5907   -468.12653    430.21685
Averages over the last 151 of 301 rows, steps 42500 to 44000:
TotEng Temp Lx Volume Press Pxx Pyy Pxy
-1300.06 75.9768 18.0104 3738.98 1170.04 2854.31 -37.0601 385.666
Loop time of 27.5855 on 1 procs for 3000 steps with 320 atoms

# ----- Output restart data -----
write_data data.in.restart
