data_nanotube

_audit_creation_method       '(5,5) Nanotube -- TubeGen 3.3, J T Frey, University of Delaware'

_cell_length_a        10.1662
_cell_length_b        10.1662
_cell_length_c         2.4624
_cell_angle_alpha     90.00
_cell_angle_beta      90.00
_cell_angle_gamma    120.00

_symmetry_space_group_name_H-M   'P 1'
_symmetry_Int_Tables_number       1

loop_
_atom_site_label
_atom_site_fract_x
_atom_site_fract_y
_atom_site_fract_z
C         0.8354    0.5000    0.0000
C         0.8852    0.6579    0.0000
C         0.8851    0.7276    0.5000
C         0.8352    0.8356    0.5000
C         0.7878    0.8683    0.0000
C         0.6572    0.8851    0.0000
C         0.5805    0.8683    0.5000
C         0.4191    0.7875    0.5000
C         0.3425    0.7276    0.0000
C         0.2120    0.5802    0.0000
C         0.1646    0.5000    0.5000
C         0.1148    0.3421    0.5000
C         0.1149    0.2724    0.0000
C         0.1648    0.1644    0.0000
C         0.2122    0.1317    0.5000
C         0.3428    0.1149    0.5000
C         0.4195    0.1317    0.0000
C         0.5809    0.2125    0.0000
C         0.6575    0.2724    0.5000
C         0.7880    0.4198    0.5000