data_nanotube

_audit_creation_method       '(8,8) Nanotube -- TubeGen 3.3, J T Frey, University of Delaware'

_cell_length_a        14.2240
_cell_length_b        14.2240
_cell_length_c         2.4617
_cell_angle_alpha     90.00
_cell_angle_beta      90.00
_cell_angle_gamma    120.00

_symmetry_space_group_name_H-M   'P 1'
_symmetry_Int_Tables_number       1

loop_
_atom_site_label
_atom_site_fract_x
_atom_site_fract_y
_atom_site_fract_z
C         0.8823    0.5000    0.0000
C         0.9265    0.6144    0.0000
C         0.9377    0.6690    0.5000
C         0.9377    0.7688    0.5000
C         0.9265    0.8122    0.0000
C         0.8823    0.8824    0.0000
C         0.8503    0.9079    0.5000
C         0.7687    0.9377    0.5000
C         0.7207    0.9415    0.0000
C         0.6142    0.9264    0.0000
C         0.5576    0.9079    0.5000
C         0.4423    0.8502    0.5000
C         0.3857    0.8122    0.0000
C         0.2792    0.7207    0.0000
C         0.2312    0.6690    0.5000
C         0.1497    0.5575    0.5000
C         0.1177    0.5000    0.0000
C         0.0735    0.3856    0.0000
C         0.0623    0.3310    0.5000
C         0.0623    0.2312    0.5000
C         0.0735    0.1878    0.0000
C         0.1177    0.1176    0.0000
C         0.1497    0.0921    0.5000
C         0.2313    0.0623    0.5000
C         0.2793    0.0585    0.0000
C         0.3858    0.0736    0.0000
C         0.4424    0.0921    0.5000
C         0.5577    0.1498    0.5000
C         0.6143    0.1878    0.0000
C         0.7208    0.2793    0.0000
C         0.7688    0.3310    0.5000
C         0.8503    0.4425    0.5000