
#======================================================================
# CRYSTAL DATA
#----------------------------------------------------------------------
data_VESTA_phase_1

_chemical_name_common                  'Li16 Sn8 O24'
_cell_length_a                         26.789730
_cell_length_b                         46.544762
_cell_length_c                         50.767071
_cell_angle_alpha                      90.000000
_cell_angle_beta                       100.351967
_cell_angle_gamma                      90.000000
_cell_volume                           62272.147321
_space_group_name_H-M_alt              'P 1'
_space_group_IT_number                 1

loop_
_space_group_symop_operation_xyz
   'x, y, z'
   'x, y, z+0.2'
   'x, y, z+0.4'
   'x, y, z+0.6'
   'x, y, z+0.8'
   'x, y+0.2, z'
   'x, y+0.2, z+0.2'
   'x, y+0.2, z+0.4'
   'x, y+0.2, z+0.6'
   'x, y+0.2, z+0.8'
   'x, y+0.4, z'
   'x, y+0.4, z+0.2'
   'x, y+0.4, z+0.4'
   'x, y+0.4, z+0.6'
   'x, y+0.4, z+0.8'
   'x, y+0.6, z'
   'x, y+0.6, z+0.2'
   'x, y+0.6, z+0.4'
   'x, y+0.6, z+0.6'
   'x, y+0.6, z+0.8'
   'x, y+0.8, z'
   'x, y+0.8, z+0.2'
   'x, y+0.8, z+0.4'
   'x, y+0.8, z+0.6'
   'x, y+0.8, z+0.8'
   'x+0.2, y, z'
   'x+0.2, y, z+0.2'
   'x+0.2, y, z+0.4'
   'x+0.2, y, z+0.6'
   'x+0.2, y, z+0.8'
   'x+0.2, y+0.2, z'
   'x+0.2, y+0.2, z+0.2'
   'x+0.2, y+0.2, z+0.4'
   'x+0.2, y+0.2, z+0.6'
   'x+0.2, y+0.2, z+0.8'
   'x+0.2, y+0.4, z'
   'x+0.2, y+0.4, z+0.2'
   'x+0.2, y+0.4, z+0.4'
   'x+0.2, y+0.4, z+0.6'
   'x+0.2, y+0.4, z+0.8'
   'x+0.2, y+0.6, z'
   'x+0.2, y+0.6, z+0.2'
   'x+0.2, y+0.6, z+0.4'
   'x+0.2, y+0.6, z+0.6'
   'x+0.2, y+0.6, z+0.8'
   'x+0.2, y+0.8, z'
   'x+0.2, y+0.8, z+0.2'
   'x+0.2, y+0.8, z+0.4'
   'x+0.2, y+0.8, z+0.6'
   'x+0.2, y+0.8, z+0.8'
   'x+0.4, y, z'
   'x+0.4, y, z+0.2'
   'x+0.4, y, z+0.4'
   'x+0.4, y, z+0.6'
   'x+0.4, y, z+0.8'
   'x+0.4, y+0.2, z'
   'x+0.4, y+0.2, z+0.2'
   'x+0.4, y+0.2, z+0.4'
   'x+0.4, y+0.2, z+0.6'
   'x+0.4, y+0.2, z+0.8'
   'x+0.4, y+0.4, z'
   'x+0.4, y+0.4, z+0.2'
   'x+0.4, y+0.4, z+0.4'
   'x+0.4, y+0.4, z+0.6'
   'x+0.4, y+0.4, z+0.8'
   'x+0.4, y+0.6, z'
   'x+0.4, y+0.6, z+0.2'
   'x+0.4, y+0.6, z+0.4'
   'x+0.4, y+0.6, z+0.6'
   'x+0.4, y+0.6, z+0.8'
   'x+0.4, y+0.8, z'
   'x+0.4, y+0.8, z+0.2'
   'x+0.4, y+0.8, z+0.4'
   'x+0.4, y+0.8, z+0.6'
   'x+0.4, y+0.8, z+0.8'
   'x+0.6, y, z'
   'x+0.6, y, z+0.2'
   'x+0.6, y, z+0.4'
   'x+0.6, y, z+0.6'
   'x+0.6, y, z+0.8'
   'x+0.6, y+0.2, z'
   'x+0.6, y+0.2, z+0.2'
   'x+0.6, y+0.2, z+0.4'
   'x+0.6, y+0.2, z+0.6'
   'x+0.6, y+0.2, z+0.8'
   'x+0.6, y+0.4, z'
   'x+0.6, y+0.4, z+0.2'
   'x+0.6, y+0.4, z+0.4'
   'x+0.6, y+0.4, z+0.6'
   'x+0.6, y+0.4, z+0.8'
   'x+0.6, y+0.6, z'
   'x+0.6, y+0.6, z+0.2'
   'x+0.6, y+0.6, z+0.4'
   'x+0.6, y+0.6, z+0.6'
   'x+0.6, y+0.6, z+0.8'
   'x+0.6, y+0.8, z'
   'x+0.6, y+0.8, z+0.2'
   'x+0.6, y+0.8, z+0.4'
   'x+0.6, y+0.8, z+0.6'
   'x+0.6, y+0.8, z+0.8'
   'x+0.8, y, z'
   'x+0.8, y, z+0.2'
   'x+0.8, y, z+0.4'
   'x+0.8, y, z+0.6'
   'x+0.8, y, z+0.8'
   'x+0.8, y+0.2, z'
   'x+0.8, y+0.2, z+0.2'
   'x+0.8, y+0.2, z+0.4'
   'x+0.8, y+0.2, z+0.6'
   'x+0.8, y+0.2, z+0.8'
   'x+0.8, y+0.4, z'
   'x+0.8, y+0.4, z+0.2'
   'x+0.8, y+0.4, z+0.4'
   'x+0.8, y+0.4, z+0.6'
   'x+0.8, y+0.4, z+0.8'
   'x+0.8, y+0.6, z'
   'x+0.8, y+0.6, z+0.2'
   'x+0.8, y+0.6, z+0.4'
   'x+0.8, y+0.6, z+0.6'
   'x+0.8, y+0.6, z+0.8'
   'x+0.8, y+0.8, z'
   'x+0.8, y+0.8, z+0.2'
   'x+0.8, y+0.8, z+0.4'
   'x+0.8, y+0.8, z+0.6'
   'x+0.8, y+0.8, z+0.8'

loop_
   _atom_site_label
   _atom_site_occupancy
   _atom_site_fract_x
   _atom_site_fract_y
   _atom_site_fract_z
   _atom_site_adp_type
   _atom_site_U_iso_or_equiv
   _atom_site_type_symbol
   Li0        1.0     0.147449     0.115680     0.199820    Uiso  ? Li
   Li1        1.0     0.052551     0.115680     0.100180    Uiso  ? Li
   Li2        1.0     0.152551     0.184320     0.000180    Uiso  ? Li
   Li3        1.0     0.047449     0.184320     0.099820    Uiso  ? Li
   Li4        1.0     0.150000     0.150000     0.100000    Uiso  ? Li
   Li5        1.0     0.050000     0.150000     0.000000    Uiso  ? Li
   Li6        1.0     0.100000     0.116973     0.050000    Uiso  ? Li
   Li7        1.0     0.000000     0.183027     0.150000    Uiso  ? Li
   Li8        1.0     0.047449     0.015680     0.199820    Uiso  ? Li
   Li9        1.0     0.152551     0.015680     0.100180    Uiso  ? Li
   Li10       1.0     0.052551     0.084320     0.000180    Uiso  ? Li
   Li11       1.0     0.147449     0.084320     0.099820    Uiso  ? Li
   Li12       1.0     0.050000     0.050000     0.100000    Uiso  ? Li
   Li13       1.0     0.150000     0.050000     0.000000    Uiso  ? Li
   Li14       1.0     0.000000     0.016973     0.050000    Uiso  ? Li
   Li15       1.0     0.100000     0.083027     0.150000    Uiso  ? Li
   Sn16       1.0     0.000000     0.116563     0.150000    Uiso  ? Sn
   Sn17       1.0     0.100000     0.150051     0.150000    Uiso  ? Sn
   Sn18       1.0     0.000000     0.149949     0.050000    Uiso  ? Sn
   Sn19       1.0     0.100000     0.183437     0.050000    Uiso  ? Sn
   Sn20       1.0     0.100000     0.016563     0.150000    Uiso  ? Sn
   Ni1        1.0     0.000000     0.050051     0.150000    Uiso  ? Ni
   Ni2        1.0     0.100000     0.049949     0.050000    Uiso  ? Ni
   Ni3        1.0     0.000000     0.083437     0.050000    Uiso  ? Ni
   O24        1.0     0.126895     0.118521     0.126060    Uiso  ? O
   O25        1.0     0.127227     0.151958     0.026598    Uiso  ? O
   O26        1.0     0.073105     0.118521     0.173940    Uiso  ? O
   O27        1.0     0.173105     0.181479     0.073940    Uiso  ? O
   O28        1.0     0.022018     0.116628     0.026590    Uiso  ? O
   O29        1.0     0.072773     0.151958     0.073402    Uiso  ? O
   O30        1.0     0.172773     0.148042     0.173402    Uiso  ? O
   O31        1.0     0.027227     0.148042     0.126598    Uiso  ? O
   O32        1.0     0.122018     0.183372     0.126590    Uiso  ? O
   O33        1.0     0.177982     0.116628     0.073410    Uiso  ? O
   O34        1.0     0.077982     0.183372     0.173410    Uiso  ? O
   O35        1.0     0.026895     0.181479     0.026060    Uiso  ? O
   O36        1.0     0.026895     0.018521     0.126060    Uiso  ? O
   O37        1.0     0.027227     0.051958     0.026598    Uiso  ? O
   O38        1.0     0.173105     0.018521     0.173940    Uiso  ? O
   O39        1.0     0.073105     0.081479     0.073940    Uiso  ? O
   O40        1.0     0.122018     0.016628     0.026590    Uiso  ? O
   O41        1.0     0.172773     0.051958     0.073402    Uiso  ? O
   O42        1.0     0.072773     0.048042     0.173402    Uiso  ? O
   O43        1.0     0.127227     0.048042     0.126598    Uiso  ? O
   O44        1.0     0.022018     0.083372     0.126590    Uiso  ? O
   O45        1.0     0.077982     0.016628     0.073410    Uiso  ? O
   O46        1.0     0.177982     0.083372     0.173410    Uiso  ? O
   O47        1.0     0.126895     0.081479     0.026060    Uiso  ? O
