
#======================================================================
# CRYSTAL DATA
#----------------------------------------------------------------------
data_VESTA_phase_1

_chemical_name_common                  'Li16 Sn8 O24'
_cell_length_a                         5.357946
_cell_length_b                         9.308952
_cell_length_c                         10.153414
_cell_angle_alpha                      90.000000
_cell_angle_beta                       100.351967
_cell_angle_gamma                      90.000000
_cell_volume                           498.177151
_space_group_name_H-M_alt              'P 1'
_space_group_IT_number                 1

loop_
_space_group_symop_operation_xyz
   'x, y, z'

loop_
   _atom_site_label
   _atom_site_occupancy
   _atom_site_fract_x
   _atom_site_fract_y
   _atom_site_fract_z
   _atom_site_adp_type
   _atom_site_U_iso_or_equiv
   _atom_site_type_symbol
   Li0        1.0     0.737246     0.578400     0.999099    Uiso  ? Li
   Li1        1.0     0.262754     0.578400     0.500901    Uiso  ? Li
   Li2        1.0     0.762754     0.921600     0.000901    Uiso  ? Li
   Li3        1.0     0.237246     0.921600     0.499099    Uiso  ? Li
   Li4        1.0     0.750000     0.750000     0.500000    Uiso  ? Li
   Li5        1.0     0.250000     0.750000     0.000000    Uiso  ? Li
   Li6        1.0     0.500000     0.584865     0.250000    Uiso  ? Li
   Li7        1.0     0.000000     0.915135     0.750000    Uiso  ? Li
   Li8        1.0     0.237246     0.078401     0.999099    Uiso  ? Li
   Li9        1.0     0.762754     0.078401     0.500901    Uiso  ? Li
   Li10       1.0     0.262754     0.421600     0.000901    Uiso  ? Li
   Li11       1.0     0.737246     0.421600     0.499099    Uiso  ? Li
   Li12       1.0     0.250000     0.250000     0.500000    Uiso  ? Li
   Li13       1.0     0.750000     0.250000     0.000000    Uiso  ? Li
   Li14       1.0     0.000000     0.084865     0.250000    Uiso  ? Li
   Li15       1.0     0.500000     0.415135     0.750000    Uiso  ? Li
   Sn16       1.0     0.000000     0.582816     0.750000    Uiso  ? Sn
   Sn17       1.0     0.500000     0.750254     0.750000    Uiso  ? Sn
   Sn18       1.0     0.000000     0.749746     0.250000    Uiso  ? Sn
   Sn19       1.0     0.500000     0.917184     0.250000    Uiso  ? Sn
   Sn20       1.0     0.500000     0.082816     0.750000    Uiso  ? Sn
   Ni1        1.0     0.000000     0.250254     0.750000    Uiso  ? Ni
   Ni2        1.0     0.500000     0.249746     0.250000    Uiso  ? Ni
   Ni3        1.0     0.000000     0.417184     0.250000    Uiso  ? Ni
   O24        1.0     0.634476     0.592605     0.630302    Uiso  ? O
   O25        1.0     0.636134     0.759791     0.132991    Uiso  ? O
   O26        1.0     0.365523     0.592605     0.869698    Uiso  ? O
   O27        1.0     0.865524     0.907395     0.369698    Uiso  ? O
   O28        1.0     0.110091     0.583140     0.132949    Uiso  ? O
   O29        1.0     0.363866     0.759791     0.367009    Uiso  ? O
   O30        1.0     0.863866     0.740209     0.867009    Uiso  ? O
   O31        1.0     0.136134     0.740209     0.632991    Uiso  ? O
   O32        1.0     0.610092     0.916860     0.632949    Uiso  ? O
   O33        1.0     0.889908     0.583140     0.367051    Uiso  ? O
   O34        1.0     0.389908     0.916860     0.867051    Uiso  ? O
   O35        1.0     0.134476     0.907395     0.130302    Uiso  ? O
   O36        1.0     0.134476     0.092605     0.630302    Uiso  ? O
   O37        1.0     0.136134     0.259791     0.132991    Uiso  ? O
   O38        1.0     0.865524     0.092605     0.869698    Uiso  ? O
   O39        1.0     0.365523     0.407396     0.369698    Uiso  ? O
   O40        1.0     0.610092     0.083140     0.132949    Uiso  ? O
   O41        1.0     0.863866     0.259791     0.367009    Uiso  ? O
   O42        1.0     0.363866     0.240209     0.867009    Uiso  ? O
   O43        1.0     0.636134     0.240209     0.632991    Uiso  ? O
   O44        1.0     0.110091     0.416860     0.632949    Uiso  ? O
   O45        1.0     0.389908     0.083140     0.367051    Uiso  ? O
   O46        1.0     0.889908     0.416860     0.867051    Uiso  ? O
   O47        1.0     0.634476     0.407396     0.130302    Uiso  ? O
