
#======================================================================
# CRYSTAL DATA
#----------------------------------------------------------------------
data_VESTA_phase_1

_chemical_name_common                  'New structure'
_cell_length_a                         10.194400
_cell_length_b                         10.194400
_cell_length_c                         10.194400
_cell_angle_alpha                      90.000000
_cell_angle_beta                       90.000000
_cell_angle_gamma                      90.000000
_cell_volume                           1059.461036
_space_group_name_H-M_alt              'P m -3 n'
_space_group_IT_number                 223

loop_
_space_group_symop_operation_xyz
   'x, y, z'
   '-x, -y, -z'
   '-x, -y, z'
   'x, y, -z'
   '-x, y, -z'
   'x, -y, z'
   'x, -y, -z'
   '-x, y, z'
   'z, x, y'
   '-z, -x, -y'
   'z, -x, -y'
   '-z, x, y'
   '-z, -x, y'
   'z, x, -y'
   '-z, x, -y'
   'z, -x, y'
   'y, z, x'
   '-y, -z, -x'
   '-y, z, -x'
   'y, -z, x'
   'y, -z, -x'
   '-y, z, x'
   '-y, -z, x'
   'y, z, -x'
   'y+1/2, x+1/2, -z+1/2'
   '-y+1/2, -x+1/2, z+1/2'
   '-y+1/2, -x+1/2, -z+1/2'
   'y+1/2, x+1/2, z+1/2'
   'y+1/2, -x+1/2, z+1/2'
   '-y+1/2, x+1/2, -z+1/2'
   '-y+1/2, x+1/2, z+1/2'
   'y+1/2, -x+1/2, -z+1/2'
   'x+1/2, z+1/2, -y+1/2'
   '-x+1/2, -z+1/2, y+1/2'
   '-x+1/2, z+1/2, y+1/2'
   'x+1/2, -z+1/2, -y+1/2'
   '-x+1/2, -z+1/2, -y+1/2'
   'x+1/2, z+1/2, y+1/2'
   'x+1/2, -z+1/2, y+1/2'
   '-x+1/2, z+1/2, -y+1/2'
   'z+1/2, y+1/2, -x+1/2'
   '-z+1/2, -y+1/2, x+1/2'
   'z+1/2, -y+1/2, x+1/2'
   '-z+1/2, y+1/2, -x+1/2'
   '-z+1/2, y+1/2, x+1/2'
   'z+1/2, -y+1/2, -x+1/2'
   '-z+1/2, -y+1/2, -x+1/2'
   'z+1/2, y+1/2, x+1/2'

loop_
   _atom_site_label
   _atom_site_occupancy
   _atom_site_fract_x
   _atom_site_fract_y
   _atom_site_fract_z
   _atom_site_adp_type
   _atom_site_U_iso_or_equiv
   _atom_site_type_symbol
   Na1        0.8640  0.000000     0.000000     0.000000    Uiso  0.012500 Na
   Na2        0.9360  0.000000     0.250000     0.500000    Uiso  0.020400 Na
   Si1        1.0     0.250000     0.000000     0.500000    Uiso  0.010800 Si
   Si2        1.0     0.184000     0.184000     0.184000    Uiso  0.011500 Si
   Si3        1.0     0.117700     0.000000     0.308400    Uiso  0.009700 Si
