
#======================================================================
# CRYSTAL DATA
#----------------------------------------------------------------------
data_VESTA_phase_1

_chemical_name_common                  'Cd2 Te2'
_cell_length_a                         4.684302
_cell_length_b                         4.684302
_cell_length_c                         7.673695
_cell_angle_alpha                      90.000000
_cell_angle_beta                       90.000000
_cell_angle_gamma                      120.000000
_cell_volume                           145.822656
_space_group_name_H-M_alt              'P 1'
_space_group_IT_number                 1

loop_
_space_group_symop_operation_xyz
   'x, y, z'

loop_
   _atom_site_label
   _atom_site_occupancy
   _atom_site_fract_x
   _atom_site_fract_y
   _atom_site_fract_z
   _atom_site_adp_type
   _atom_site_U_iso_or_equiv
   _atom_site_type_symbol
   Cd0        1.0     0.666667     0.333333     0.500092    Uiso  ? Cd
   Cd1        1.0     0.333333     0.666667     0.000092    Uiso  ? Cd
   Te2        1.0     0.666667     0.333333     0.874908    Uiso  ? Te
   Te3        1.0     0.333333     0.666667     0.374908    Uiso  ? Te
