data_global
_chemical_name 'Graphane - chair'
_cell_length_a 2.516
_cell_length_b 2.516
_cell_length_c 4.978
_cell_angle_alpha 90
_cell_angle_beta 90
_cell_angle_gamma 120
_symmetry_space_group_name_H-M 'P -3 m 1'
loop_
_atom_site_label
_atom_site_symmetry_multiplicity
_atom_site_Wyckoff_symbol
_atom_site_fract_x
_atom_site_fract_y
_atom_site_fract_z
C 2 d  0.333333 0.666666 0.5419
H 2 d 0.333333 0.666666 0.7479