
#======================================================================
# CRYSTAL DATA
#----------------------------------------------------------------------
data_VESTA_phase_1

_chemical_name_common                  'POSCAR file written by OVITO Basic 3.8'
_cell_length_a                         7.555392
_cell_length_b                         12.224880
_cell_length_c                         4.032659
_cell_angle_alpha                      90.000000
_cell_angle_beta                       90.000000
_cell_angle_gamma                      108.000000
_cell_volume                           354.241496
_space_group_name_H-M_alt              'P 1'
_space_group_IT_number                 1

loop_
_space_group_symop_operation_xyz
   'x, y, z'

loop_
   _atom_site_label
   _atom_site_occupancy
   _atom_site_fract_x
   _atom_site_fract_y
   _atom_site_fract_z
   _atom_site_adp_type
   _atom_site_U_iso_or_equiv
   _atom_site_type_symbol
   Al1        1.0     0.997078     0.994157     0.193598    Uiso  ? Al
   Al2        1.0     0.278280     0.556559     0.384835    Uiso  ? Al
   Al3        1.0     0.381459     0.762917     0.021334    Uiso  ? Al
   Al4        1.0     0.623182     0.246365     0.026762    Uiso  ? Al
   Al5        1.0     0.282391     0.187511     0.517812    Uiso  ? Al
   Al6        1.0     0.905117     0.187510     0.517812    Uiso  ? Al
   Al7        1.0     0.893144     0.786287     0.538994    Uiso  ? Al
   Al8        1.0     0.645944     0.916826     0.545905    Uiso  ? Al
   Al9        1.0     0.270882     0.916822     0.545905    Uiso  ? Al
   Al10       1.0     0.707907     0.052190     0.013545    Uiso  ? Al
   Al11       1.0     0.344281     0.052189     0.013545    Uiso  ? Al
   Al12       1.0     0.366813     0.370484     0.018359    Uiso  ? Al
   Al13       1.0     0.003671     0.370484     0.018359    Uiso  ? Al
   Al14       1.0     0.918474     0.480224     0.539696    Uiso  ? Al
   Al15       1.0     0.561750     0.480223     0.539696    Uiso  ? Al
   Al16       1.0     0.627871     0.633030     0.021426    Uiso  ? Al
   Al17       1.0     0.005159     0.633031     0.021426    Uiso  ? Al
   Ni1        1.0     0.117332     0.841582     0.022941    Uiso  ? Ni
   Ni2        1.0     0.158106     0.709131     0.536891    Uiso  ? Ni
   Ni3        1.0     0.724247     0.841579     0.022941    Uiso  ? Ni
   Ni4        1.0     0.551024     0.709131     0.536891    Uiso  ? Ni
   Ni5        1.0     0.099843     0.199687     0.020035    Uiso  ? Ni
   Ni6        1.0     0.176329     0.352659     0.535783    Uiso  ? Ni
   Co1        1.0     0.726388     0.452778     0.020977    Uiso  ? Co
   Co2        1.0     0.551066     0.102132     0.512890    Uiso  ? Co
