
#======================================================================
# CRYSTAL DATA
#----------------------------------------------------------------------
data_VESTA_phase_1

_chemical_name_common                  'C2 Si Ti3'
_cell_length_a                         3.057500
_cell_length_b                         5.295745
_cell_length_c                         17.623501
_cell_angle_alpha                      90.000000
_cell_angle_beta                       90.000000
_cell_angle_gamma                      90.000000
_cell_volume                           285.355159
_space_group_name_H-M_alt              'P 1'
_space_group_IT_number                 1

loop_
_space_group_symop_operation_xyz
   'x, y, z'

loop_
   _atom_site_label
   _atom_site_occupancy
   _atom_site_fract_x
   _atom_site_fract_y
   _atom_site_fract_z
   _atom_site_adp_type
   _atom_site_U_iso_or_equiv
   _atom_site_type_symbol
   Ti1        1.0     0.000000     0.000000     0.000000    Uiso  ? Ti
   Ti2        1.0     0.000000     0.000000     0.500000    Uiso  ? Ti
   Ti3        1.0     0.500000     0.500000     0.000000    Uiso  ? Ti
   Ti4        1.0     0.500000     0.500000     0.500000    Uiso  ? Ti
   Ti5        1.0     0.500000     0.166667     0.135500    Uiso  ? Ti
   Ti6        1.0     0.500000     0.833333     0.864500    Uiso  ? Ti
   Ti7        1.0     0.000000     0.666667     0.135500    Uiso  ? Ti
   Ti8        1.0     0.000000     0.333333     0.864500    Uiso  ? Ti
   Ti9        1.0     0.500000     0.833333     0.635500    Uiso  ? Ti
   Ti10       1.0     0.500000     0.166667     0.364500    Uiso  ? Ti
   Ti11       1.0     0.000000     0.333333     0.635500    Uiso  ? Ti
   Ti12       1.0     0.000000     0.666667     0.364500    Uiso  ? Ti
   Si1        1.0     0.000000     0.000000     0.250000    Uiso  ? Si
   Si2        1.0     0.000000     0.000000     0.750000    Uiso  ? Si
   Si3        1.0     0.500000     0.500000     0.250000    Uiso  ? Si
   Si4        1.0     0.500000     0.500000     0.750000    Uiso  ? Si
   C1         1.0     0.000000     0.333333     0.072200    Uiso  ? C
   C2         1.0     0.000000     0.666667     0.927800    Uiso  ? C
   C3         1.0     0.500000     0.833333     0.072200    Uiso  ? C
   C4         1.0     0.500000     0.166667     0.927800    Uiso  ? C
   C5         1.0     0.000000     0.666667     0.572200    Uiso  ? C
   C6         1.0     0.000000     0.333333     0.427800    Uiso  ? C
   C7         1.0     0.500000     0.166667     0.572200    Uiso  ? C
   C8         1.0     0.500000     0.833333     0.427800    Uiso  ? C
