
#======================================================================
# CRYSTAL DATA
#----------------------------------------------------------------------
data_VESTA_phase_1

_chemical_name_common                  'B2\beta12 '
_cell_length_a                         8.559442
_cell_length_b                         2.915500
_cell_length_c                         25.000000
_cell_angle_alpha                      90.000000
_cell_angle_beta                       90.000000
_cell_angle_gamma                      90.000000
_cell_volume                           623.876281
_space_group_name_H-M_alt              'P 1'
_space_group_IT_number                 1

loop_
_space_group_symop_operation_xyz
   'x, y, z'

loop_
   _atom_site_label
   _atom_site_occupancy
   _atom_site_fract_x
   _atom_site_fract_y
   _atom_site_fract_z
   _atom_site_adp_type
   _atom_site_U_iso_or_equiv
   _atom_site_type_symbol
   B1         1.0     0.095779     0.500000     0.500000    Uiso  ? B
   B2         1.0     0.693668     0.500000     0.500000    Uiso  ? B
   B3         1.0     0.302111     0.500000     0.500000    Uiso  ? B
   B4         1.0     0.900000     0.500000     0.500000    Uiso  ? B
   B5         1.0     0.594652     0.000000     0.500000    Uiso  ? B
   B6         1.0     0.401127     0.000000     0.500000    Uiso  ? B
   B7         1.0     0.198945     0.000000     0.500000    Uiso  ? B
   B8         1.0     0.796834     0.000000     0.500000    Uiso  ? B
