
#======================================================================
# CRYSTAL DATA
#----------------------------------------------------------------------
data_VESTA_phase_1

_chemical_name_common                  'sm_isp_SD0376827-standardized_unitcell'
_cell_length_a                         5.590000
_cell_length_b                         5.590000
_cell_length_c                         5.590000
_cell_angle_alpha                      90.000000
_cell_angle_beta                       90.000000
_cell_angle_gamma                      90.000000
_cell_volume                           174.676893
_space_group_name_H-M_alt              'F m -3 m'
_space_group_IT_number                 225

loop_
_space_group_symop_operation_xyz
   'x, y, z'
   '-x, -y, -z'
   '-x, -y, z'
   'x, y, -z'
   '-x, y, -z'
   'x, -y, z'
   'x, -y, -z'
   '-x, y, z'
   'z, x, y'
   '-z, -x, -y'
   'z, -x, -y'
   '-z, x, y'
   '-z, -x, y'
   'z, x, -y'
   '-z, x, -y'
   'z, -x, y'
   'y, z, x'
   '-y, -z, -x'
   '-y, z, -x'
   'y, -z, x'
   'y, -z, -x'
   '-y, z, x'
   '-y, -z, x'
   'y, z, -x'
   'y, x, -z'
   '-y, -x, z'
   '-y, -x, -z'
   'y, x, z'
   'y, -x, z'
   '-y, x, -z'
   '-y, x, z'
   'y, -x, -z'
   'x, z, -y'
   '-x, -z, y'
   '-x, z, y'
   'x, -z, -y'
   '-x, -z, -y'
   'x, z, y'
   'x, -z, y'
   '-x, z, -y'
   'z, y, -x'
   '-z, -y, x'
   'z, -y, x'
   '-z, y, -x'
   '-z, y, x'
   'z, -y, -x'
   '-z, -y, -x'
   'z, y, x'
   'x, y+1/2, z+1/2'
   '-x, -y+1/2, -z+1/2'
   '-x, -y+1/2, z+1/2'
   'x, y+1/2, -z+1/2'
   '-x, y+1/2, -z+1/2'
   'x, -y+1/2, z+1/2'
   'x, -y+1/2, -z+1/2'
   '-x, y+1/2, z+1/2'
   'z, x+1/2, y+1/2'
   '-z, -x+1/2, -y+1/2'
   'z, -x+1/2, -y+1/2'
   '-z, x+1/2, y+1/2'
   '-z, -x+1/2, y+1/2'
   'z, x+1/2, -y+1/2'
   '-z, x+1/2, -y+1/2'
   'z, -x+1/2, y+1/2'
   'y, z+1/2, x+1/2'
   '-y, -z+1/2, -x+1/2'
   '-y, z+1/2, -x+1/2'
   'y, -z+1/2, x+1/2'
   'y, -z+1/2, -x+1/2'
   '-y, z+1/2, x+1/2'
   '-y, -z+1/2, x+1/2'
   'y, z+1/2, -x+1/2'
   'y, x+1/2, -z+1/2'
   '-y, -x+1/2, z+1/2'
   '-y, -x+1/2, -z+1/2'
   'y, x+1/2, z+1/2'
   'y, -x+1/2, z+1/2'
   '-y, x+1/2, -z+1/2'
   '-y, x+1/2, z+1/2'
   'y, -x+1/2, -z+1/2'
   'x, z+1/2, -y+1/2'
   '-x, -z+1/2, y+1/2'
   '-x, z+1/2, y+1/2'
   'x, -z+1/2, -y+1/2'
   '-x, -z+1/2, -y+1/2'
   'x, z+1/2, y+1/2'
   'x, -z+1/2, y+1/2'
   '-x, z+1/2, -y+1/2'
   'z, y+1/2, -x+1/2'
   '-z, -y+1/2, x+1/2'
   'z, -y+1/2, x+1/2'
   '-z, y+1/2, -x+1/2'
   '-z, y+1/2, x+1/2'
   'z, -y+1/2, -x+1/2'
   '-z, -y+1/2, -x+1/2'
   'z, y+1/2, x+1/2'
   'x+1/2, y, z+1/2'
   '-x+1/2, -y, -z+1/2'
   '-x+1/2, -y, z+1/2'
   'x+1/2, y, -z+1/2'
   '-x+1/2, y, -z+1/2'
   'x+1/2, -y, z+1/2'
   'x+1/2, -y, -z+1/2'
   '-x+1/2, y, z+1/2'
   'z+1/2, x, y+1/2'
   '-z+1/2, -x, -y+1/2'
   'z+1/2, -x, -y+1/2'
   '-z+1/2, x, y+1/2'
   '-z+1/2, -x, y+1/2'
   'z+1/2, x, -y+1/2'
   '-z+1/2, x, -y+1/2'
   'z+1/2, -x, y+1/2'
   'y+1/2, z, x+1/2'
   '-y+1/2, -z, -x+1/2'
   '-y+1/2, z, -x+1/2'
   'y+1/2, -z, x+1/2'
   'y+1/2, -z, -x+1/2'
   '-y+1/2, z, x+1/2'
   '-y+1/2, -z, x+1/2'
   'y+1/2, z, -x+1/2'
   'y+1/2, x, -z+1/2'
   '-y+1/2, -x, z+1/2'
   '-y+1/2, -x, -z+1/2'
   'y+1/2, x, z+1/2'
   'y+1/2, -x, z+1/2'
   '-y+1/2, x, -z+1/2'
   '-y+1/2, x, z+1/2'
   'y+1/2, -x, -z+1/2'
   'x+1/2, z, -y+1/2'
   '-x+1/2, -z, y+1/2'
   '-x+1/2, z, y+1/2'
   'x+1/2, -z, -y+1/2'
   '-x+1/2, -z, -y+1/2'
   'x+1/2, z, y+1/2'
   'x+1/2, -z, y+1/2'
   '-x+1/2, z, -y+1/2'
   'z+1/2, y, -x+1/2'
   '-z+1/2, -y, x+1/2'
   'z+1/2, -y, x+1/2'
   '-z+1/2, y, -x+1/2'
   '-z+1/2, y, x+1/2'
   'z+1/2, -y, -x+1/2'
   '-z+1/2, -y, -x+1/2'
   'z+1/2, y, x+1/2'
   'x+1/2, y+1/2, z'
   '-x+1/2, -y+1/2, -z'
   '-x+1/2, -y+1/2, z'
   'x+1/2, y+1/2, -z'
   '-x+1/2, y+1/2, -z'
   'x+1/2, -y+1/2, z'
   'x+1/2, -y+1/2, -z'
   '-x+1/2, y+1/2, z'
   'z+1/2, x+1/2, y'
   '-z+1/2, -x+1/2, -y'
   'z+1/2, -x+1/2, -y'
   '-z+1/2, x+1/2, y'
   '-z+1/2, -x+1/2, y'
   'z+1/2, x+1/2, -y'
   '-z+1/2, x+1/2, -y'
   'z+1/2, -x+1/2, y'
   'y+1/2, z+1/2, x'
   '-y+1/2, -z+1/2, -x'
   '-y+1/2, z+1/2, -x'
   'y+1/2, -z+1/2, x'
   'y+1/2, -z+1/2, -x'
   '-y+1/2, z+1/2, x'
   '-y+1/2, -z+1/2, x'
   'y+1/2, z+1/2, -x'
   'y+1/2, x+1/2, -z'
   '-y+1/2, -x+1/2, z'
   '-y+1/2, -x+1/2, -z'
   'y+1/2, x+1/2, z'
   'y+1/2, -x+1/2, z'
   '-y+1/2, x+1/2, -z'
   '-y+1/2, x+1/2, z'
   'y+1/2, -x+1/2, -z'
   'x+1/2, z+1/2, -y'
   '-x+1/2, -z+1/2, y'
   '-x+1/2, z+1/2, y'
   'x+1/2, -z+1/2, -y'
   '-x+1/2, -z+1/2, -y'
   'x+1/2, z+1/2, y'
   'x+1/2, -z+1/2, y'
   '-x+1/2, z+1/2, -y'
   'z+1/2, y+1/2, -x'
   '-z+1/2, -y+1/2, x'
   'z+1/2, -y+1/2, x'
   '-z+1/2, y+1/2, -x'
   '-z+1/2, y+1/2, x'
   'z+1/2, -y+1/2, -x'
   '-z+1/2, -y+1/2, -x'
   'z+1/2, y+1/2, x'

loop_
   _atom_site_label
   _atom_site_occupancy
   _atom_site_fract_x
   _atom_site_fract_y
   _atom_site_fract_z
   _atom_site_adp_type
   _atom_site_U_iso_or_equiv
   _atom_site_type_symbol
   O          1.0     0.250000     0.250000     0.250000    Uiso  ? O
   Th         1.0     0.000000     0.000000     0.000000    Uiso  ? Th

#======================================================================
# CRYSTAL DATA
#----------------------------------------------------------------------
data_VESTA_phase_2

_chemical_name_common                  'sm_isp_SD0376827-published_cell'
_cell_length_a                         5.590000
_cell_length_b                         5.590000
_cell_length_c                         5.590000
_cell_angle_alpha                      90.000000
_cell_angle_beta                       90.000000
_cell_angle_gamma                      90.000000
_cell_volume                           174.676893
_space_group_name_H-M_alt              'F m -3 m'
_space_group_IT_number                 225

loop_
_space_group_symop_operation_xyz
   'x, y, z'
   '-x, -y, -z'
   '-x, -y, z'
   'x, y, -z'
   '-x, y, -z'
   'x, -y, z'
   'x, -y, -z'
   '-x, y, z'
   'z, x, y'
   '-z, -x, -y'
   'z, -x, -y'
   '-z, x, y'
   '-z, -x, y'
   'z, x, -y'
   '-z, x, -y'
   'z, -x, y'
   'y, z, x'
   '-y, -z, -x'
   '-y, z, -x'
   'y, -z, x'
   'y, -z, -x'
   '-y, z, x'
   '-y, -z, x'
   'y, z, -x'
   'y, x, -z'
   '-y, -x, z'
   '-y, -x, -z'
   'y, x, z'
   'y, -x, z'
   '-y, x, -z'
   '-y, x, z'
   'y, -x, -z'
   'x, z, -y'
   '-x, -z, y'
   '-x, z, y'
   'x, -z, -y'
   '-x, -z, -y'
   'x, z, y'
   'x, -z, y'
   '-x, z, -y'
   'z, y, -x'
   '-z, -y, x'
   'z, -y, x'
   '-z, y, -x'
   '-z, y, x'
   'z, -y, -x'
   '-z, -y, -x'
   'z, y, x'
   'x, y+1/2, z+1/2'
   '-x, -y+1/2, -z+1/2'
   '-x, -y+1/2, z+1/2'
   'x, y+1/2, -z+1/2'
   '-x, y+1/2, -z+1/2'
   'x, -y+1/2, z+1/2'
   'x, -y+1/2, -z+1/2'
   '-x, y+1/2, z+1/2'
   'z, x+1/2, y+1/2'
   '-z, -x+1/2, -y+1/2'
   'z, -x+1/2, -y+1/2'
   '-z, x+1/2, y+1/2'
   '-z, -x+1/2, y+1/2'
   'z, x+1/2, -y+1/2'
   '-z, x+1/2, -y+1/2'
   'z, -x+1/2, y+1/2'
   'y, z+1/2, x+1/2'
   '-y, -z+1/2, -x+1/2'
   '-y, z+1/2, -x+1/2'
   'y, -z+1/2, x+1/2'
   'y, -z+1/2, -x+1/2'
   '-y, z+1/2, x+1/2'
   '-y, -z+1/2, x+1/2'
   'y, z+1/2, -x+1/2'
   'y, x+1/2, -z+1/2'
   '-y, -x+1/2, z+1/2'
   '-y, -x+1/2, -z+1/2'
   'y, x+1/2, z+1/2'
   'y, -x+1/2, z+1/2'
   '-y, x+1/2, -z+1/2'
   '-y, x+1/2, z+1/2'
   'y, -x+1/2, -z+1/2'
   'x, z+1/2, -y+1/2'
   '-x, -z+1/2, y+1/2'
   '-x, z+1/2, y+1/2'
   'x, -z+1/2, -y+1/2'
   '-x, -z+1/2, -y+1/2'
   'x, z+1/2, y+1/2'
   'x, -z+1/2, y+1/2'
   '-x, z+1/2, -y+1/2'
   'z, y+1/2, -x+1/2'
   '-z, -y+1/2, x+1/2'
   'z, -y+1/2, x+1/2'
   '-z, y+1/2, -x+1/2'
   '-z, y+1/2, x+1/2'
   'z, -y+1/2, -x+1/2'
   '-z, -y+1/2, -x+1/2'
   'z, y+1/2, x+1/2'
   'x+1/2, y, z+1/2'
   '-x+1/2, -y, -z+1/2'
   '-x+1/2, -y, z+1/2'
   'x+1/2, y, -z+1/2'
   '-x+1/2, y, -z+1/2'
   'x+1/2, -y, z+1/2'
   'x+1/2, -y, -z+1/2'
   '-x+1/2, y, z+1/2'
   'z+1/2, x, y+1/2'
   '-z+1/2, -x, -y+1/2'
   'z+1/2, -x, -y+1/2'
   '-z+1/2, x, y+1/2'
   '-z+1/2, -x, y+1/2'
   'z+1/2, x, -y+1/2'
   '-z+1/2, x, -y+1/2'
   'z+1/2, -x, y+1/2'
   'y+1/2, z, x+1/2'
   '-y+1/2, -z, -x+1/2'
   '-y+1/2, z, -x+1/2'
   'y+1/2, -z, x+1/2'
   'y+1/2, -z, -x+1/2'
   '-y+1/2, z, x+1/2'
   '-y+1/2, -z, x+1/2'
   'y+1/2, z, -x+1/2'
   'y+1/2, x, -z+1/2'
   '-y+1/2, -x, z+1/2'
   '-y+1/2, -x, -z+1/2'
   'y+1/2, x, z+1/2'
   'y+1/2, -x, z+1/2'
   '-y+1/2, x, -z+1/2'
   '-y+1/2, x, z+1/2'
   'y+1/2, -x, -z+1/2'
   'x+1/2, z, -y+1/2'
   '-x+1/2, -z, y+1/2'
   '-x+1/2, z, y+1/2'
   'x+1/2, -z, -y+1/2'
   '-x+1/2, -z, -y+1/2'
   'x+1/2, z, y+1/2'
   'x+1/2, -z, y+1/2'
   '-x+1/2, z, -y+1/2'
   'z+1/2, y, -x+1/2'
   '-z+1/2, -y, x+1/2'
   'z+1/2, -y, x+1/2'
   '-z+1/2, y, -x+1/2'
   '-z+1/2, y, x+1/2'
   'z+1/2, -y, -x+1/2'
   '-z+1/2, -y, -x+1/2'
   'z+1/2, y, x+1/2'
   'x+1/2, y+1/2, z'
   '-x+1/2, -y+1/2, -z'
   '-x+1/2, -y+1/2, z'
   'x+1/2, y+1/2, -z'
   '-x+1/2, y+1/2, -z'
   'x+1/2, -y+1/2, z'
   'x+1/2, -y+1/2, -z'
   '-x+1/2, y+1/2, z'
   'z+1/2, x+1/2, y'
   '-z+1/2, -x+1/2, -y'
   'z+1/2, -x+1/2, -y'
   '-z+1/2, x+1/2, y'
   '-z+1/2, -x+1/2, y'
   'z+1/2, x+1/2, -y'
   '-z+1/2, x+1/2, -y'
   'z+1/2, -x+1/2, y'
   'y+1/2, z+1/2, x'
   '-y+1/2, -z+1/2, -x'
   '-y+1/2, z+1/2, -x'
   'y+1/2, -z+1/2, x'
   'y+1/2, -z+1/2, -x'
   '-y+1/2, z+1/2, x'
   '-y+1/2, -z+1/2, x'
   'y+1/2, z+1/2, -x'
   'y+1/2, x+1/2, -z'
   '-y+1/2, -x+1/2, z'
   '-y+1/2, -x+1/2, -z'
   'y+1/2, x+1/2, z'
   'y+1/2, -x+1/2, z'
   '-y+1/2, x+1/2, -z'
   '-y+1/2, x+1/2, z'
   'y+1/2, -x+1/2, -z'
   'x+1/2, z+1/2, -y'
   '-x+1/2, -z+1/2, y'
   '-x+1/2, z+1/2, y'
   'x+1/2, -z+1/2, -y'
   '-x+1/2, -z+1/2, -y'
   'x+1/2, z+1/2, y'
   'x+1/2, -z+1/2, y'
   '-x+1/2, z+1/2, -y'
   'z+1/2, y+1/2, -x'
   '-z+1/2, -y+1/2, x'
   'z+1/2, -y+1/2, x'
   '-z+1/2, y+1/2, -x'
   '-z+1/2, y+1/2, x'
   'z+1/2, -y+1/2, -x'
   '-z+1/2, -y+1/2, -x'
   'z+1/2, y+1/2, x'

loop_
   _atom_site_label
   _atom_site_occupancy
   _atom_site_fract_x
   _atom_site_fract_y
   _atom_site_fract_z
   _atom_site_adp_type
   _atom_site_U_iso_or_equiv
   _atom_site_type_symbol
   Th         1.0     0.000000     0.000000     0.000000    Uiso  ? Th
   O          1.0     0.250000     0.250000     0.250000    Uiso  ? O

#======================================================================
# CRYSTAL DATA
#----------------------------------------------------------------------
data_VESTA_phase_3

_chemical_name_common                  'sm_isp_SD0376827-niggli_reduced_cell'
_cell_length_a                         3.952700
_cell_length_b                         3.952700
_cell_length_c                         3.952700
_cell_angle_alpha                      60.000000
_cell_angle_beta                       60.000000
_cell_angle_gamma                      60.000000
_cell_volume                           43.668325
_space_group_name_H-M_alt              'P 1'
_space_group_IT_number                 1

loop_
_space_group_symop_operation_xyz
   'x, y, z'

loop_
   _atom_site_label
   _atom_site_occupancy
   _atom_site_fract_x
   _atom_site_fract_y
   _atom_site_fract_z
   _atom_site_adp_type
   _atom_site_U_iso_or_equiv
   _atom_site_type_symbol
